# Title Card Required
# Created by GaussView 5.0.9
#

#
#

@<TRIPOS>MOLECULE
Molecule Name
148 158
SMALL
NO_CHARGES


@<TRIPOS>ATOM
1 C1    -2.1240     4.9986     1.5711 C
2 C2    -2.7045     3.6626     1.2662 C
3 C3    -2.7805     5.8557     2.3615 C
4 C4    -3.8832     3.3143     1.8277 C
5 C5    -1.9873     2.6816     0.3997 C
6 C6    -4.6050     4.2733     2.6958 C
7 C7    -4.4698     1.9886     1.5506 C
8 C8    -4.0821     5.4787     2.9454 C
9 C9    -2.4396     1.4158     0.3125 C
10 C10    -0.7929     3.0826    -0.3806 C
11 C11    -3.8102     1.0933     0.7993 C
12 O12    -1.7043     0.4676    -0.3548 O
13 Si13    -4.6765    -0.4671     0.2482 Si
14 C14    -0.8564     4.0450    -1.3292 C
15 C15     0.5191     2.4599    -0.0451 C
16 C16     0.3970     4.5755    -1.9159 C
17 C17    -2.1369     4.6183    -1.8175 C
18 C18     1.5819     4.1330    -1.4810 C
19 C19     0.3084     5.6308    -2.9448 C
20 C20     1.6586     3.0614    -0.4602 C
21 Si21     3.3548     2.5800     0.1650 Si
22 O22     0.5619     1.3798     0.8068 O
23 C23    -2.1406     5.5754    -2.7529 C
24 C24    -0.8838     6.0969    -3.3320 C
25 P25    -0.2961     0.0440     0.3749 P
26 O26    -0.5382    -0.6768     1.6823 O
27 N27     0.4793    -0.8775    -0.6920 N
28 C28    -6.4847    -0.4045     0.6885 C
29 C29    -4.6968    -0.6013    -1.6058 C
30 C30    -3.8582    -1.9260     1.0600 C
31 C31     3.8580     0.9864    -0.6467 C
32 C32     4.5815     3.9109    -0.2690 C
33 C33     3.4552     2.5174     2.0220 C
34 C34    -7.0721    -1.3648     1.4231 C
35 C35    -7.3074     0.7094     0.1563 C
36 C36    -4.3319     0.4306    -2.3859 C
37 C37    -5.2550    -1.8238    -2.2326 C
38 C38    -3.8826    -2.0388     2.3985 C
39 C39    -3.2528    -3.0107     0.2501 C
40 C40     4.1188    -0.1134     0.0747 C
41 C41     4.0309     0.9490    -2.1187 C
42 C42     4.3561     5.1745     0.1297 C
43 C43     5.8347     3.5907    -0.9965 C
44 C44     2.4354     2.9177     2.8008 C
45 C45     4.7512     2.1596     2.6490 C
46 C46    -8.5167    -1.2894     1.7265 C
47 C47    -9.2498    -0.2733     1.2566 C
48 C48    -8.6160     0.7729     0.4298 C
49 C49    -4.4403     0.3258    -3.8563 C
50 C50    -4.9133    -0.7931    -4.4168 C
51 C51    -5.3465    -1.9181    -3.5646 C
52 C52    -3.3971    -3.2727     3.0491 C
53 C53    -2.9015    -4.2709     2.3086 C
54 C54    -2.8031    -4.1230     0.8431 C
55 C55     4.5810    -1.3499    -0.5896 C
56 C56     4.7654    -1.3687    -1.9144 C
57 C57     4.4787    -0.1621    -2.7166 C
58 C58     5.3256     6.2419    -0.1917 C
59 C59     6.4437     5.9508    -0.8662 C
60 C60     6.7133     4.5598    -1.2821 C
61 C61     2.5928     2.9574     4.2698 C
62 C62     3.7641     2.6317     4.8291 C
63 C63     4.8982     2.2192     3.9782 C
64 C64     5.0795    -2.8376     3.4584 C
65 C65     4.1751    -3.5421     2.6637 C
66 C66     2.9242    -2.9978     2.3421 C
67 C67     2.6044    -1.7187     2.8176 C
68 C68     3.4948    -1.0331     3.6429 C
69 C69     4.7337    -1.5850     3.9660 C
70 C70     1.9444    -3.8632     1.5660 C
71 N71     1.6365    -3.4106     0.2264 N
72 S72     1.1702    -4.5478    -0.9137 S
73 O73     0.9928    -5.8141    -0.1801 O
74 O74     0.0812    -4.0040    -1.7229 O
75 C75     2.6275    -4.7133    -1.9788 C
76 C76     2.5533    -4.3113    -3.3084 C
77 C77     3.7076    -4.4740    -4.0751 C
78 C78     4.8453    -5.0143    -3.4795 C
79 C79     4.7951    -5.3657    -2.1281 C
80 N80     3.6989    -5.2201    -1.3769 N
81 N81    -0.1115    -2.9437     2.7635 N
82 C82    -0.2930    -2.9029     4.0528 C
83 C83     0.2438    -4.0770     4.6916 C
84 C84     0.7992    -4.8278     3.7087 C
85 C85     0.6160    -4.1491     2.3998 C
86 H86    -1.1623     5.2883     1.1687 H
87 H87    -2.3547     6.8262     2.5813 H
88 H88    -5.5587     4.0018     3.1313 H
89 H89    -5.4559     1.7699     1.9370 H
90 H90    -4.6094     6.1787     3.5806 H
91 H91    -3.0863     4.2570    -1.4436 H
92 H92     2.4907     4.5386    -1.9068 H
93 H93     1.2087     6.0378    -3.3895 H
94 H94    -3.0839     5.9753    -3.1020 H
95 H95    -0.9344     6.8717    -4.0862 H
96 H96    -6.5137    -2.2130     1.7911 H
97 H97    -6.8510     1.4784    -0.4548 H
98 H98    -3.9788     1.3595    -1.9609 H
99 H99    -5.5949    -2.6456    -1.6147 H
100 H100    -4.3180    -1.2596     3.0122 H
101 H101    -3.1748    -2.9190    -0.8220 H
102 H102     4.0209    -0.1027     1.1461 H
103 H103     3.8128     1.8271    -2.7139 H
104 H104     3.4601     5.4295     0.6826 H
105 H105     6.0623     2.5744    -1.2848 H
106 H106     1.5027     3.2577     2.3754 H
107 H107     5.5891     1.8590     2.0323 H
108 H108    -8.9807    -2.0610     2.3273 H
109 H109   -10.3080    -0.2185     1.4769 H
110 H110    -9.2130     1.5887     0.0431 H
111 H111    -4.1324     1.1564    -4.4782 H
112 H112    -4.9899    -0.8718    -5.4934 H
113 H113    -5.7496    -2.8136    -4.0195 H
114 H114    -3.4533    -3.3712     4.1254 H
115 H115    -2.5465    -5.1761     2.7840 H
116 H116    -2.3643    -4.9155     0.2506 H
117 H117     4.7848    -2.2347    -0.0012 H
118 H118     5.1164    -2.2679    -2.4015 H
119 H119     4.6145    -0.1849    -3.7900 H
120 H120     5.1284     7.2594     0.1200 H
121 H121     7.1558     6.7312    -1.1016 H
122 H122     7.6290     4.3245    -1.8090 H
123 H123     1.7616     3.2649     4.8910 H
124 H124     3.8824     2.6676     5.9043 H
125 H125     5.8453     1.9585     4.4324 H
126 H126     6.0483    -3.2720     3.6863 H
127 H127     4.4448    -4.5218     2.2787 H
128 H128     1.6762    -1.2333     2.5405 H
129 H129     3.2109    -0.0577     4.0201 H
130 H130     5.4268    -1.0391     4.5991 H
131 H131     2.3847    -4.8558     1.4597 H
132 H132     1.6498    -3.8616    -3.6973 H
133 H133     3.7166    -4.1710    -5.1173 H
134 H134     5.7627    -5.1513    -4.0425 H
135 H135     5.6695    -5.7768    -1.6287 H
136 H136    -0.3435    -2.0939     2.1324 H
137 H137    -0.7853    -2.0539     4.5139 H
138 H138     0.2027    -4.2832     5.7518 H
139 H139     1.2963    -5.7837     3.8135 H
140 H140     0.0134    -4.7732     1.7260 H
141 S141     0.7614    -0.5346    -2.2385 S
142 O142     1.7495    -1.4911    -2.7450 O
143 C143    -0.8276    -0.9769    -3.1629 C
144 O144     0.9322     0.8998    -2.5178 O
145 F145    -1.6230    -1.7689    -2.4480 F
146 F146    -1.4867     0.1460    -3.4647 F
147 F147    -0.5048    -1.6009    -4.3041 F
148 H148     1.3220    -2.4488     0.0033 H
@<TRIPOS>BOND
1 1 2 1
2 1 3 2
3 1 86 1
4 2 4 2
5 2 5 1
6 3 8 1
7 3 87 1
8 4 6 1
9 4 7 1
10 5 9 2
11 5 10 1
12 6 8 2
13 6 88 1
14 7 11 2
15 7 89 1
16 8 90 1
17 9 11 1
18 9 12 1
19 10 14 2
20 10 15 1
21 11 13 1
22 12 25 1
23 13 28 1
24 13 29 1
25 13 30 1
26 14 16 1
27 14 17 1
28 15 20 2
29 15 22 1
30 16 18 2
31 16 19 1
32 17 23 2
33 17 91 1
34 18 20 1
35 18 92 1
36 19 24 2
37 19 93 1
38 20 21 1
39 21 31 1
40 21 32 1
41 21 33 1
42 22 25 1
43 23 24 1
44 23 94 1
45 24 95 1
46 25 26 2
47 25 27 Ar
48 27 141 1
49 28 34 2
50 28 35 1
51 29 36 2
52 29 37 1
53 30 38 2
54 30 39 1
55 31 40 2
56 31 41 1
57 32 42 2
58 32 43 1
59 33 44 2
60 33 45 1
61 34 46 1
62 34 96 1
63 35 48 2
64 35 97 1
65 36 49 1
66 36 98 1
67 37 51 2
68 37 99 1
69 38 52 1
70 38 100 1
71 39 54 2
72 39 101 1
73 40 55 1
74 40 102 1
75 41 57 2
76 41 103 1
77 42 58 1
78 42 104 1
79 43 60 2
80 43 105 1
81 44 61 1
82 44 106 1
83 45 63 2
84 45 107 1
85 46 47 2
86 46 108 1
87 47 48 1
88 47 109 1
89 48 110 1
90 49 50 2
91 49 111 1
92 50 51 1
93 50 112 1
94 51 113 1
95 52 53 2
96 52 114 1
97 53 54 1
98 53 115 1
99 54 116 1
100 55 56 2
101 55 117 1
102 56 57 1
103 56 118 1
104 57 119 1
105 58 59 2
106 58 120 1
107 59 60 1
108 59 121 1
109 60 122 1
110 61 62 2
111 61 123 1
112 62 63 1
113 62 124 1
114 63 125 1
115 64 65 Ar
116 64 69 Ar
117 64 126 1
118 65 66 Ar
119 65 127 1
120 66 67 Ar
121 66 70 1
122 67 68 Ar
123 67 128 1
124 68 69 Ar
125 68 129 1
126 69 130 1
127 70 71 1
128 70 85 1
129 70 131 1
130 71 72 1
131 71 148 1
132 72 73 2
133 72 74 2
134 72 75 1
135 75 76 Ar
136 75 80 Ar
137 76 77 Ar
138 76 132 1
139 77 78 Ar
140 77 133 1
141 78 79 Ar
142 78 134 1
143 79 80 Ar
144 79 135 1
145 81 82 2
146 81 85 1
147 82 83 Ar
148 82 137 1
149 83 84 2
150 83 138 1
151 84 85 1
152 84 139 1
153 85 140 1
154 141 142 2
155 141 144 2
156 143 145 1
157 143 146 1
158 143 147 1
