# Title Card Required
# Created by GaussView 5.0.9
#

#
#

@<TRIPOS>MOLECULE
Molecule Name
148 159
SMALL
NO_CHARGES


@<TRIPOS>ATOM
1 C1    -2.4151     5.3109    -0.0125 C
2 C2    -2.9076     3.9063    -0.1034 C
3 C3    -3.2473     6.3013     0.3286 C
4 C4    -4.1926     3.6472     0.2212 C
5 C5    -2.0047     2.7782    -0.4952 C
6 C6    -5.1076     4.7521     0.5922 C
7 C7    -4.6787     2.2582     0.2633 C
8 C8    -4.6596     6.0106     0.6351 C
9 C9    -2.4379     1.5009    -0.3766 C
10 C10    -0.6130     3.0532    -0.9339 C
11 C11    -3.8579     1.2320    -0.0068 C
12 O12    -1.6264     0.4559    -0.7470 O
13 Si13    -4.4893    -0.5050     0.2615 Si
14 C14    -0.3288     3.8515    -1.9865 C
15 C15     0.4938     2.5452    -0.0794 C
16 C16     1.0552     4.3540    -2.1663 C
17 C17    -1.3519     4.2884    -2.9684 C
18 C18     2.0071     4.0402    -1.2770 C
19 C19     1.3411     5.2450    -3.3081 C
20 C20     1.7162     3.1175    -0.1511 C
21 Si21     3.1068     2.7193     1.0456 Si
22 O22     0.2343     1.5489     0.8257 O
23 C23    -1.0197     5.1014    -3.9783 C
24 C24     0.3644     5.5931    -4.1534 C
25 P25    -0.3357     0.1362     0.2131 P
26 O26    -0.6785    -0.6953     1.4147 O
27 N27     0.7080    -0.6475    -0.7567 N
28 C28    -3.9849    -1.0451     1.9773 C
29 C29    -6.3578    -0.4812     0.1330 C
30 C30    -3.8446    -1.6593    -1.0569 C
31 C31     3.9301     1.1487     0.4808 C
32 C32     4.3774     4.0812     0.9379 C
33 C33     2.4783     2.6116     2.8103 C
34 C34    -4.2950    -2.2735     2.4282 C
35 C35    -3.2998    -0.0918     2.8866 C
36 C36    -7.1405    -0.9393     1.1273 C
37 C37    -6.9983     0.1014    -1.0737 C
38 C38    -3.1540    -2.7687    -0.7395 C
39 C39    -4.1570    -1.3894    -2.4821 C
40 C40     4.2562     0.1724     1.3423 C
41 C41     4.3057     1.0103    -0.9466 C
42 C42     3.9996     5.3697     1.0097 C
43 C43     5.8143     3.7545     0.7618 C
44 C44     2.6831     3.6142     3.6842 C
45 C45     1.7401     1.4079     3.2669 C
46 C46    -3.9707    -2.6642     3.8153 C
47 C47    -3.3689    -1.7937     4.6335 C
48 C48    -3.0072    -0.4491     4.1429 C
49 C49    -8.6122    -0.9107     0.9956 C
50 C50    -9.1782    -0.4094    -0.1072 C
51 C51    -8.3315     0.1303    -1.1879 C
52 C52    -2.7840    -3.7442    -1.7867 C
53 C53    -3.1255    -3.5231    -3.0607 C
54 C54    -3.8343    -2.2813    -3.4272 C
55 C55     4.9078    -1.0631     0.8566 C
56 C56     5.2047    -1.1999    -0.4404 C
57 C57     4.9043    -0.1049    -1.3833 C
58 C58     5.0039     6.4484     0.9089 C
59 C59     6.2971     6.1471     0.7458 C
60 C60     6.7217     4.7348     0.6701 C
61 C61     2.1501     3.5307     5.0607 C
62 C62     1.4631     2.4518     5.4510 C
63 C63     1.2521     1.3358     4.5105 C
64 C64     3.7601    -4.3758     3.8136 C
65 C65     3.0116    -4.7296     2.6966 C
66 C66     2.2432    -3.7706     2.0122 C
67 C67     2.2111    -2.4520     2.4899 C
68 C68     2.9413    -2.1107     3.6298 C
69 C69     3.7209    -3.0622     4.2858 C
70 C70     1.4927    -4.2474     0.8330 C
71 N71     1.4044    -3.5427    -0.3379 N
72 S72     1.2963    -4.4303    -1.8115 S
73 O73     1.0211    -5.8125    -1.4063 O
74 O74     0.4028    -3.7222    -2.7170 O
75 C75     2.9923    -4.3281    -2.4425 C
76 C76     3.2339    -3.7065    -3.6619 C
77 C77     4.5618    -3.6806    -4.0897 C
78 C78     5.5432    -4.2601    -3.2883 C
79 C79     5.1671    -4.8489    -2.0781 C
80 N80     3.9004    -4.8869    -1.6528 N
81 N81    -0.7213    -3.2429     2.1210 N
82 C82    -0.6549    -3.4033     3.4416 C
83 C83    -0.4771    -4.7724     3.7500 C
84 C84    -0.4018    -5.4393     2.5425 C
85 C85    -0.4485    -4.4658     1.4947 C
86 H86    -1.3774     5.5502    -0.1990 H
87 H87    -2.8826     7.3183     0.3944 H
88 H88    -6.1427     4.5440     0.8331 H
89 H89    -5.6980     2.0833     0.5823 H
90 H90    -5.3281     6.8168     0.9081 H
91 H91    -2.3745     3.9407    -2.8945 H
92 H92     3.0104     4.4213    -1.4158 H
93 H93     2.3427     5.6272    -3.4659 H
94 H94    -1.7775     5.4043    -4.6894 H
95 H95     0.5876     6.2488    -4.9852 H
96 H96    -4.8134    -2.9818     1.7940 H
97 H97    -3.0308     0.8991     2.5468 H
98 H98    -6.7232    -1.3322     2.0406 H
99 H99    -6.3974     0.5460    -1.8528 H
100 H100    -2.8837    -2.9892     0.2805 H
101 H101    -4.6314    -0.4653    -2.7743 H
102 H102     4.0708     0.2800     2.3998 H
103 H103     4.1020     1.8137    -1.6429 H
104 H104     2.9569     5.6348     1.1347 H
105 H105     6.1436     2.7253     0.7142 H
106 H106     3.2258     4.5038     3.4056 H
107 H107     1.6115     0.5670     2.6048 H
108 H108    -4.2268    -3.6544     4.1690 H
109 H109    -3.1310    -2.0783     5.6502 H
110 H110    -2.5046     0.2466     4.8024 H
111 H111    -9.2310    -1.2975     1.7950 H
112 H112   -10.2560    -0.3870    -0.2041 H
113 H113    -8.7925     0.5665    -2.0647 H
114 H114    -2.2507    -4.6467    -1.5191 H
115 H115    -2.8604    -4.2395    -3.8274 H
116 H116    -4.0662    -2.0811    -4.4652 H
117 H117     5.1436    -1.8575     1.5527 H
118 H118     5.6786    -2.1046    -0.7980 H
119 H119     5.1701    -0.2064    -2.4275 H
120 H120     4.6898     7.4826     0.9654 H
121 H121     7.0342     6.9360     0.6709 H
122 H122     7.7695     4.4948     0.5438 H
123 H123     2.3127     4.3488     5.7505 H
124 H124     1.0700     2.3907     6.4575 H
125 H125     0.7168     0.4519     4.8334 H
126 H126     4.3668    -5.1223     4.3170 H
127 H127     3.0335    -5.7533     2.3337 H
128 H128     1.6086    -1.7059     1.9841 H
129 H129     2.9046    -1.0973     4.0117 H
130 H130     4.2927    -2.7816     5.1653 H
131 H131     1.6291    -5.3044     0.6326 H
132 H132     2.4306    -3.2350    -4.2114 H
133 H133     4.8225    -3.2011    -5.0276 H
134 H134     6.5867    -4.2509    -3.5853 H
135 H135     5.9084    -5.3009    -1.4237 H
136 H136    -0.7752    -2.2928     1.6746 H
137 H137    -0.7061    -2.5508     4.1038 H
138 H138    -0.4002    -5.1875     4.7444 H
139 H139    -0.2682    -6.5011     2.3849 H
140 H140    -0.8404    -4.6511     0.5050 H
141 S141     1.2439    -0.2336    -2.2144 S
142 O142     2.2375    -1.2437    -2.6040 O
143 C143    -0.1884    -0.4719    -3.4144 C
144 O144     1.5771     1.1850    -2.3993 O
145 F145    -1.0300    -1.4060    -2.9868 F
146 F146    -0.8588     0.6765    -3.5692 F
147 F147     0.3077    -0.8381    -4.6052 F
148 H148     1.2883    -2.5115    -0.4132 H
@<TRIPOS>BOND
1 1 2 1
2 1 3 2
3 1 86 1
4 2 4 2
5 2 5 1
6 3 8 1
7 3 87 1
8 4 6 1
9 4 7 1
10 5 9 2
11 5 10 1
12 6 8 2
13 6 88 1
14 7 11 2
15 7 89 1
16 8 90 1
17 9 11 1
18 9 12 1
19 10 14 2
20 10 15 1
21 11 13 1
22 12 25 1
23 13 28 1
24 13 29 1
25 13 30 1
26 14 16 1
27 14 17 1
28 15 20 2
29 15 22 1
30 16 18 2
31 16 19 1
32 17 23 2
33 17 91 1
34 18 20 1
35 18 92 1
36 19 24 2
37 19 93 1
38 20 21 1
39 21 31 1
40 21 32 1
41 21 33 1
42 22 25 1
43 23 24 1
44 23 94 1
45 24 95 1
46 25 26 2
47 25 27 Ar
48 27 141 Ar
49 28 34 2
50 28 35 1
51 29 36 2
52 29 37 1
53 30 38 2
54 30 39 1
55 31 40 2
56 31 41 1
57 32 42 2
58 32 43 1
59 33 44 2
60 33 45 1
61 34 46 1
62 34 96 1
63 35 48 2
64 35 97 1
65 36 49 1
66 36 98 1
67 37 51 2
68 37 99 1
69 38 52 1
70 38 100 1
71 39 54 2
72 39 101 1
73 40 55 1
74 40 102 1
75 41 57 2
76 41 103 1
77 42 58 1
78 42 104 1
79 43 60 2
80 43 105 1
81 44 61 1
82 44 106 1
83 45 63 2
84 45 107 1
85 46 47 2
86 46 108 1
87 47 48 1
88 47 109 1
89 48 110 1
90 49 50 2
91 49 111 1
92 50 51 1
93 50 112 1
94 51 113 1
95 52 53 2
96 52 114 1
97 53 54 1
98 53 115 1
99 54 116 1
100 55 56 2
101 55 117 1
102 56 57 1
103 56 118 1
104 57 119 1
105 58 59 2
106 58 120 1
107 59 60 1
108 59 121 1
109 60 122 1
110 61 62 2
111 61 123 1
112 62 63 1
113 62 124 1
114 63 125 1
115 64 65 Ar
116 64 69 Ar
117 64 126 1
118 65 66 Ar
119 65 127 1
120 66 67 Ar
121 66 70 1
122 67 68 Ar
123 67 128 1
124 68 69 Ar
125 68 129 1
126 69 130 1
127 70 71 Ar
128 70 131 1
129 71 72 1
130 71 148 1
131 72 73 2
132 72 74 2
133 72 75 1
134 75 76 Ar
135 75 80 Ar
136 76 77 Ar
137 76 132 1
138 77 78 Ar
139 77 133 1
140 78 79 Ar
141 78 134 1
142 79 80 Ar
143 79 135 1
144 81 82 Ar
145 81 85 1
146 81 136 1
147 82 83 Ar
148 82 137 1
149 83 84 2
150 83 138 1
151 84 85 Ar
152 84 139 1
153 85 140 1
154 141 142 2
155 141 143 1
156 141 144 2
157 143 145 1
158 143 146 1
159 143 147 1
