# Title Card Required
# Created by GaussView 5.0.9
#

#
#

@<TRIPOS>MOLECULE
Molecule Name
148 159
SMALL
NO_CHARGES


@<TRIPOS>ATOM
1 C1     3.5722     4.6044     0.4105 C
2 C2     3.7464     3.2000     0.3672 C
3 C3     4.6662     5.4654     0.3045 C
4 C4     5.0515     2.6955     0.1487 C
5 C5     2.6550     2.2941     0.5159 C
6 C6     6.1439     3.5739     0.0525 C
7 C7     5.2558     1.3241     0.0089 C
8 C8     5.9498     4.9517     0.1372 C
9 C9     2.8681     0.9043     0.2502 C
10 C10     1.3125     2.8228     0.9124 C
11 C11     4.1784     0.4383     0.0171 C
12 O12     1.8772    -0.0574     0.2715 O
13 Si13     4.4859    -1.3799    -0.2940 Si
14 C14     1.1039     3.5594     2.1052 C
15 C15     0.2483     2.6691     0.0087 C
16 C16    -0.1117     4.2694     2.2791 C
17 C17     2.0691     3.5988     3.1324 C
18 C18    -1.0942     4.2315     1.2810 C
19 C19    -0.3237     5.0191     3.4469 C
20 C20    -0.9268     3.4271     0.1491 C
21 Si21    -2.2751     3.3928    -1.1443 Si
22 O22     0.3137     1.6725    -0.9259 O
23 C23     1.8398     4.3430     4.2917 C
24 C24     0.6496     5.0540     4.4468 C
25 P25     0.3518     0.2037    -0.2171 P
26 O26    -0.0231    -0.8091    -1.2725 O
27 C27     6.2994    -1.7673    -0.4249 C
28 C28     3.7158    -2.2813     1.1392 C
29 C29     3.7274    -1.8871    -1.9165 C
30 C30    -3.7619     2.4613    -0.5158 C
31 C31    -2.7279     5.1618    -1.5101 C
32 C32    -1.6487     2.5792    -2.7017 C
33 C33     7.0345    -1.2674    -1.5108 C
34 C34     6.9363    -2.5853     0.5212 C
35 C35     4.0501    -1.9064     2.4491 C
36 C36     2.7627    -3.2886     0.9331 C
37 C37     3.8817    -3.2059    -2.3695 C
38 C38     3.0507    -0.9567    -2.7223 C
39 C39    -4.8142     2.1542    -1.3935 C
40 C40    -3.8458     2.0577     0.8248 C
41 C41    -4.0698     5.5674    -1.5901 C
42 C42    -1.7116     6.1175    -1.6686 C
43 C43    -1.9904     1.2482    -2.9855 C
44 C44    -0.7537     3.2515    -3.5486 C
45 C45     8.3951    -1.5628    -1.6357 C
46 C46     9.0269    -2.3667    -0.6834 C
47 C47     8.2973    -2.8793     0.3927 C
48 C48     3.4479    -2.5426     3.5387 C
49 C49     2.5088    -3.5554     3.3264 C
50 C50     2.1675    -3.9288     2.0241 C
51 C51     3.3466    -3.5948    -3.6012 C
52 C52     2.6657    -2.6666    -4.3931 C
53 C53     2.5163    -1.3491    -3.9529 C
54 C54    -5.9346     1.4558    -0.9347 C
55 C55    -6.0184     1.0721     0.4053 C
56 C56    -4.9767     1.3771     1.2848 C
57 C57    -4.3871     6.9041    -1.8508 C
58 C58    -3.3696     7.8458    -2.0225 C
59 C59    -2.0325     7.4530    -1.9279 C
60 C60    -1.4642     0.6061    -4.1094 C
61 C61    -0.5836     1.2853    -4.9540 C
62 C62    -0.2275     2.6067    -4.6727 C
63 C63    -3.5525    -6.4846     1.1609 C
64 C64    -3.0995    -5.5076     0.2789 C
65 C65    -2.1839    -4.5337     0.7161 C
66 C66    -1.7219    -4.5746     2.0451 C
67 C67    -2.1829    -5.5576     2.9199 C
68 C68    -3.0973    -6.5147     2.4822 C
69 C69    -1.6150    -3.4480    -0.1204 C
70 N70    -2.2917    -2.6103    -0.9633 N
71 S71    -3.8844    -2.6609    -1.5834 S
72 O72    -3.9910    -1.4443    -2.3808 O
73 O73    -4.1606    -3.9638    -2.1929 O
74 C74    -4.9314    -2.5299    -0.1013 C
75 C75    -6.2650    -2.9185    -0.2200 C
76 C76    -7.0620    -2.7632     0.9129 C
77 C77    -6.4877    -2.2584     2.0797 C
78 C78    -5.1349    -1.9156     2.0727 C
79 N79    -4.3629    -2.0376     0.9849 N
80 N80     0.2038    -3.3091    -2.1081 N
81 C81    -0.4515    -3.3766    -3.2745 C
82 C82    -1.1245    -4.6110    -3.3696 C
83 C83    -0.9105    -5.2692    -2.1702 C
84 C84    -0.1699    -4.4014    -1.3183 C
85 H85     2.5938     5.0537     0.5077 H
86 H86     4.5161     6.5366     0.3475 H
87 H87     7.1474     3.1948    -0.1018 H
88 H88     6.2603     0.9542    -0.1437 H
89 H89     6.7948     5.6233     0.0563 H
90 H90     2.9954     3.0447     3.0532 H
91 H91    -2.0083     4.8025     1.4007 H
92 H92    -1.2443     5.5727     3.5887 H
93 H93     2.5872     4.3661     5.0742 H
94 H94     0.4785     5.6298     5.3471 H
95 H95     6.5558    -0.6474    -2.2589 H
96 H96     6.3890    -3.0014     1.3554 H
97 H97     4.7710    -1.1180     2.6273 H
98 H98     2.4756    -3.5789    -0.0650 H
99 H99     4.4163    -3.9328    -1.7706 H
100 H100     2.9369     0.0722    -2.4117 H
101 H101    -4.7658     2.4516    -2.4337 H
102 H102    -3.0493     2.2753     1.5204 H
103 H103    -4.8752     4.8615    -1.4523 H
104 H104    -0.6703     5.8359    -1.5767 H
105 H105    -2.6308     0.6931    -2.3182 H
106 H106    -0.4477     4.2655    -3.3389 H
107 H107     8.9589    -1.1703    -2.4720 H
108 H108    10.0801    -2.5960    -0.7815 H
109 H109     8.7860    -3.5077     1.1260 H
110 H110     3.7071    -2.2485     4.5474 H
111 H111     2.0413    -4.0464     4.1700 H
112 H112     1.4358    -4.7091     1.8608 H
113 H113     3.4619    -4.6152    -3.9426 H
114 H114     2.2498    -2.9693    -5.3454 H
115 H115     1.9877    -0.6308    -4.5662 H
116 H116    -6.7402     1.2171    -1.6168 H
117 H117    -6.8895     0.5381     0.7619 H
118 H118    -5.0450     1.0840     2.3241 H
119 H119    -5.4231     7.2105    -1.9165 H
120 H120    -3.6173     8.8803    -2.2222 H
121 H121    -1.2442     8.1845    -2.0500 H
122 H122    -1.7302    -0.4217    -4.3178 H
123 H123    -0.1706     0.7853    -5.8205 H
124 H124     0.4634     3.1294    -5.3214 H
125 H125    -4.2588    -7.2319     0.8117 H
126 H126    -3.4509    -5.5032    -0.7450 H
127 H127    -1.0316    -3.8140     2.3959 H
128 H128    -1.8232    -5.5701     3.9441 H
129 H129    -3.4510    -7.2843     3.1621 H
130 H130    -0.8393    -2.8885     0.3984 H
131 H131    -6.6505    -3.3283    -1.1462 H
132 H132    -8.1111    -3.0401     0.8852 H
133 H133    -7.0748    -2.1311     2.9829 H
134 H134    -4.6461    -1.5198     2.9569 H
135 H135     0.5036    -2.3934    -1.7296 H
136 H136    -0.4262    -2.5500    -3.9705 H
137 H137    -1.7145    -4.9439    -4.2103 H
138 H138    -1.2791    -6.2434    -1.8840 H
139 H139     0.4595    -4.7167    -0.4988 H
140 H140    -1.8159    -1.7123    -1.1428 H
141 N141    -0.5872     0.2201     1.0983 N
142 S142    -0.1174    -0.3514     2.5096 S
143 O143     1.0639     0.2840     3.1116 O
144 O144    -0.1945    -1.8290     2.5791 O
145 C145    -1.5377     0.2413     3.5546 C
146 F146    -1.5667     1.5760     3.6131 F
147 F147    -2.7150    -0.1941     3.0787 F
148 F148    -1.3826    -0.2387     4.7955 F
@<TRIPOS>BOND
1 1 2 Ar
2 1 3 Ar
3 1 85 1
4 2 4 Ar
5 2 5 Ar
6 3 8 Ar
7 3 86 1
8 4 6 Ar
9 4 7 Ar
10 5 9 Ar
11 5 10 1
12 6 8 Ar
13 6 87 1
14 7 11 Ar
15 7 88 1
16 8 89 1
17 9 11 Ar
18 9 12 1
19 10 14 Ar
20 10 15 Ar
21 11 13 1
22 12 25 1
23 13 27 1
24 13 28 1
25 13 29 1
26 14 16 Ar
27 14 17 Ar
28 15 20 Ar
29 15 22 1
30 16 18 Ar
31 16 19 Ar
32 17 23 Ar
33 17 90 1
34 18 20 Ar
35 18 91 1
36 19 24 Ar
37 19 92 1
38 20 21 1
39 21 30 1
40 21 31 1
41 21 32 1
42 22 25 1
43 23 24 Ar
44 23 93 1
45 24 94 1
46 25 26 2
47 25 141 Ar
48 27 33 Ar
49 27 34 Ar
50 28 35 Ar
51 28 36 Ar
52 29 37 Ar
53 29 38 Ar
54 30 39 Ar
55 30 40 Ar
56 31 41 Ar
57 31 42 Ar
58 32 43 Ar
59 32 44 Ar
60 33 45 Ar
61 33 95 1
62 34 47 Ar
63 34 96 1
64 35 48 Ar
65 35 97 1
66 36 50 Ar
67 36 98 1
68 37 51 Ar
69 37 99 1
70 38 53 Ar
71 38 100 1
72 39 54 Ar
73 39 101 1
74 40 56 Ar
75 40 102 1
76 41 57 Ar
77 41 103 1
78 42 59 Ar
79 42 104 1
80 43 60 Ar
81 43 105 1
82 44 62 Ar
83 44 106 1
84 45 46 Ar
85 45 107 1
86 46 47 Ar
87 46 108 1
88 47 109 1
89 48 49 Ar
90 48 110 1
91 49 50 Ar
92 49 111 1
93 50 112 1
94 51 52 Ar
95 51 113 1
96 52 53 Ar
97 52 114 1
98 53 115 1
99 54 55 Ar
100 54 116 1
101 55 56 Ar
102 55 117 1
103 56 118 1
104 57 58 Ar
105 57 119 1
106 58 59 Ar
107 58 120 1
108 59 121 1
109 60 61 Ar
110 60 122 1
111 61 62 Ar
112 61 123 1
113 62 124 1
114 63 64 Ar
115 63 68 Ar
116 63 125 1
117 64 65 Ar
118 64 126 1
119 65 66 Ar
120 65 69 1
121 66 67 Ar
122 66 127 1
123 67 68 Ar
124 67 128 1
125 68 129 1
126 69 70 Ar
127 69 130 1
128 70 71 1
129 70 140 1
130 71 72 2
131 71 73 2
132 71 74 1
133 74 75 Ar
134 74 79 2
135 75 76 Ar
136 75 131 1
137 76 77 Ar
138 76 132 1
139 77 78 Ar
140 77 133 1
141 78 79 Ar
142 78 134 1
143 80 81 Ar
144 80 84 1
145 80 135 1
146 81 82 Ar
147 81 136 1
148 82 83 2
149 82 137 1
150 83 84 Ar
151 83 138 1
152 84 139 1
153 141 142 Ar
154 142 143 2
155 142 144 2
156 142 145 1
157 145 146 1
158 145 147 1
159 145 148 1
