# Title Card Required
# Created by GaussView 5.0.9
#

#
#

@<TRIPOS>MOLECULE
Molecule Name
148 157
SMALL
NO_CHARGES


@<TRIPOS>ATOM
1 C1    -1.7592     5.1297     1.4572 C
2 C2    -2.4293     3.8309     1.1762 C
3 C3    -2.3621     6.0499     2.2189 C
4 C4    -3.6360     3.5805     1.7298 C
5 C5    -1.7733     2.7807     0.3432 C
6 C6    -4.2980     4.6087     2.5659 C
7 C7    -4.3106     2.2925     1.4772 C
8 C8    -3.6937     5.7798     2.7945 C
9 C9    -2.3123     1.5489     0.2779 C
10 C10    -0.5485     3.0781    -0.4346 C
11 C11    -3.7069     1.3342     0.7568 C
12 O12    -1.6306     0.5369    -0.3520 O
13 Si13    -4.6718    -0.1810     0.2487 Si
14 C14    -0.5420     4.0195    -1.4063 C
15 C15     0.7186     2.3803    -0.0707 C
16 C16     0.7476     4.4592    -1.9884 C
17 C17    -1.7792     4.6601    -1.9225 C
18 C18     1.8977     3.9564    -1.5273 C
19 C19     0.7361     5.4956    -3.0399 C
20 C20     1.8969     2.9043    -0.4837 C
21 Si21     3.5564     2.3355     0.1669 Si
22 O22     0.6919     1.3148     0.8014 O
23 C23    -1.7134     5.5955    -2.8773 C
24 C24    -0.4205     6.0261    -3.4513 C
25 P25    -0.2845     0.0354     0.4410 P
26 O26    -0.5618    -0.6571     1.7346 O
27 N27     0.4509    -0.9653    -0.6257 N
28 C28    -6.4741     0.0176     0.6735 C
29 C29    -4.6918    -0.3796    -1.5992 C
30 C30    -3.9625    -1.6580     1.1249 C
31 C31     3.9884     0.7255    -0.6546 C
32 C32     4.8496     3.6027    -0.2608 C
33 C33     3.6246     2.2789     2.0259 C
34 C34    -7.1262    -0.8723     1.4417 C
35 C35    -7.2194     1.1614     0.0934 C
36 C36    -4.2484     0.5947    -2.4118 C
37 C37    -5.3358    -1.5791    -2.1873 C
38 C38    -3.9857    -1.7027     2.4676 C
39 C39    -3.4628    -2.8300     0.3664 C
40 C40     4.2672    -0.3777     0.0558 C
41 C41     4.0855     0.6820    -2.1336 C
42 C42     4.6924     4.8733     0.1481 C
43 C43     6.0752     3.2248    -1.0072 C
44 C44     2.6250     2.7642     2.7830 C
45 C45     4.8794     1.8337     2.6800 C
46 C46    -8.5639    -0.6906     1.7324 C
47 C47    -9.2267     0.3521     1.2185 C
48 C48    -8.5221     1.3214     0.3558 C
49 C49    -4.3570     0.4464    -3.8785 C
50 C50    -4.9085    -0.6537    -4.4033 C
51 C51    -5.4276    -1.7131    -3.5159 C
52 C52    -3.6153    -2.9445     3.1760 C
53 C53    -3.2400    -4.0245     2.4815 C
54 C54    -3.1284    -3.9543     1.0108 C
55 C55     4.6577    -1.6273    -0.6304 C
56 C56     4.7563    -1.6568    -1.9641 C
57 C57     4.4593    -0.4444    -2.7526 C
58 C58     5.7131     5.8916    -0.1741 C
59 C59     6.8079     5.5487    -0.8625 C
60 C60     6.9998     4.1496    -1.2944 C
61 C61     2.7566     2.8022     4.2546 C
62 C62     3.8860     2.3852     4.8387 C
63 C63     5.0019     1.8841     4.0120 C
64 C64     4.6409    -2.8748     3.7527 C
65 C65     3.9453    -3.5786     2.7817 C
66 C66     2.8202    -3.0006     2.1500 C
67 C67     2.3706    -1.7293     2.5576 C
68 C68     3.0513    -1.0540     3.5640 C
69 C69     4.1910    -1.6092     4.1468 C
70 C70     2.1860    -3.7938     1.1298 C
71 N71     1.4121    -3.3956     0.1493 N
72 S72     0.7890    -4.6285    -0.9598 S
73 O73     0.7510    -5.8614    -0.1759 O
74 O74    -0.4010    -4.0500    -1.5627 O
75 C75     2.1164    -4.7622    -2.1851 C
76 C76     1.8570    -4.4544    -3.5147 C
77 C77     2.9114    -4.6542    -4.4068 C
78 C78     4.1291    -5.1278    -3.9231 C
79 C79     4.2632    -5.3819    -2.5555 C
80 N80     3.2625    -5.2048    -1.6866 N
81 N81    -0.3291    -3.1008     3.2693 N
82 C82     0.0536    -2.8112     4.5501 C
83 C83     0.5499    -3.9676     5.1292 C
84 C84     0.4682    -4.9898     4.1504 C
85 C85    -0.0674    -4.4222     3.0038 C
86 H86    -0.7748     5.3409     1.0606 H
87 H87    -1.8710     6.9929     2.4217 H
88 H88    -5.2733     4.4157     2.9953 H
89 H89    -5.3124     2.1522     1.8594 H
90 H90    -4.1771     6.5302     3.4066 H
91 H91    -2.7534     4.3660    -1.5533 H
92 H92     2.8346     4.2980    -1.9486 H
93 H93     1.6649     5.8369    -3.4815 H
94 H94    -2.6264     6.0452    -3.2461 H
95 H95    -0.4146     6.7864    -4.2218 H
96 H96    -6.6259    -1.7396     1.8471 H
97 H97    -6.7109     1.8745    -0.5438 H
98 H98    -3.8295     1.5093    -2.0163 H
99 H99    -5.7392    -2.3510    -1.5439 H
100 H100    -4.3471    -0.8596     3.0438 H
101 H101    -3.3715    -2.7928    -0.7086 H
102 H102     4.2377    -0.3643     1.1322 H
103 H103     3.8654     1.5662    -2.7188 H
104 H104     3.8148     5.1701     0.7096 H
105 H105     6.2431     2.2015    -1.3119 H
106 H106     1.7291     3.1717     2.3381 H
107 H107     5.7077     1.4757     2.0814 H
108 H108    -9.0799    -1.4058     2.3598 H
109 H109   -10.2799     0.4848     1.4295 H
110 H110    -9.0625     2.1589    -0.0659 H
111 H111    -3.9862     1.2299    -4.5265 H
112 H112    -4.9856    -0.7642    -5.4771 H
113 H113    -5.8938    -2.5918    -3.9424 H
114 H114    -3.6739    -2.9865     4.2558 H
115 H115    -2.9876    -4.9416     2.9977 H
116 H116    -2.7710    -4.8127     0.4568 H
117 H117     4.8766    -2.5147    -0.0510 H
118 H118     5.0524    -2.5665    -2.4682 H
119 H119     4.5338    -0.4728    -3.8319 H
120 H120     5.5722     6.9152     0.1481 H
121 H121     7.5570     6.2932    -1.0989 H
122 H122     7.8949     3.8726    -1.8362 H
123 H123     1.9398     3.1771     4.8577 H
124 H124     3.9850     2.4162     5.9160 H
125 H125     5.9185     1.5578     4.4859 H
126 H126     5.5190    -3.3122     4.2164 H
127 H127     4.2736    -4.5704     2.4846 H
128 H128     1.4786    -1.2913     2.1278 H
129 H129     2.6784    -0.0911     3.8909 H
130 H130     4.7219    -1.0657     4.9227 H
131 H131     2.4270    -4.8543     1.1195 H
132 H132     0.9029    -4.0456    -3.8191 H
133 H133     2.7825    -4.4287    -5.4603 H
134 H134     4.9707    -5.2889    -4.5884 H
135 H135     5.2039    -5.7354    -2.1418 H
136 H136    -0.6466    -2.3908     2.6092 H
137 H137    -0.0605    -1.8131     4.9453 H
138 H138     0.9208    -4.0610     6.1401 H
139 H139     0.7513    -6.0269     4.2653 H
140 H140    -0.3397    -4.8794     2.0652 H
141 S141     0.7465    -0.6668    -2.1793 S
142 O142     1.6465    -1.7291    -2.6514 O
143 C143    -0.8744    -0.9845    -3.1050 C
144 O144     1.0468     0.7352    -2.4946 O
145 F145    -1.7504    -1.6599    -2.3672 F
146 F146    -1.4072     0.1829    -3.4675 F
147 F147    -0.6055    -1.6934    -4.2145 F
148 H148     1.0761    -2.3832    -0.0806 H
@<TRIPOS>BOND
1 1 2 1
2 1 3 2
3 1 86 1
4 2 4 2
5 2 5 1
6 3 8 1
7 3 87 1
8 4 6 1
9 4 7 1
10 5 9 2
11 5 10 1
12 6 8 2
13 6 88 1
14 7 11 2
15 7 89 1
16 8 90 1
17 9 11 1
18 9 12 1
19 10 14 2
20 10 15 1
21 11 13 1
22 12 25 1
23 13 28 1
24 13 29 1
25 13 30 1
26 14 16 1
27 14 17 1
28 15 20 2
29 15 22 1
30 16 18 2
31 16 19 1
32 17 23 2
33 17 91 1
34 18 20 1
35 18 92 1
36 19 24 2
37 19 93 1
38 20 21 1
39 21 31 1
40 21 32 1
41 21 33 1
42 22 25 1
43 23 24 1
44 23 94 1
45 24 95 1
46 25 26 2
47 25 27 Ar
48 27 141 1
49 28 34 2
50 28 35 1
51 29 36 2
52 29 37 1
53 30 38 2
54 30 39 1
55 31 40 2
56 31 41 1
57 32 42 2
58 32 43 1
59 33 44 2
60 33 45 1
61 34 46 1
62 34 96 1
63 35 48 2
64 35 97 1
65 36 49 1
66 36 98 1
67 37 51 2
68 37 99 1
69 38 52 1
70 38 100 1
71 39 54 2
72 39 101 1
73 40 55 1
74 40 102 1
75 41 57 2
76 41 103 1
77 42 58 1
78 42 104 1
79 43 60 2
80 43 105 1
81 44 61 1
82 44 106 1
83 45 63 2
84 45 107 1
85 46 47 2
86 46 108 1
87 47 48 1
88 47 109 1
89 48 110 1
90 49 50 2
91 49 111 1
92 50 51 1
93 50 112 1
94 51 113 1
95 52 53 2
96 52 114 1
97 53 54 1
98 53 115 1
99 54 116 1
100 55 56 2
101 55 117 1
102 56 57 1
103 56 118 1
104 57 119 1
105 58 59 2
106 58 120 1
107 59 60 1
108 59 121 1
109 60 122 1
110 61 62 2
111 61 123 1
112 62 63 1
113 62 124 1
114 63 125 1
115 64 65 Ar
116 64 69 Ar
117 64 126 1
118 65 66 Ar
119 65 127 1
120 66 67 Ar
121 66 70 Ar
122 67 68 Ar
123 67 128 1
124 68 69 Ar
125 68 129 1
126 69 130 1
127 70 71 2
128 70 131 1
129 71 72 1
130 72 73 2
131 72 74 2
132 72 75 1
133 75 76 Ar
134 75 80 Ar
135 76 77 Ar
136 76 132 1
137 77 78 Ar
138 77 133 1
139 78 79 Ar
140 78 134 1
141 79 80 Ar
142 79 135 1
143 81 82 Ar
144 81 85 Ar
145 81 136 1
146 82 83 2
147 82 137 1
148 83 84 Ar
149 83 138 1
150 84 85 Ar
151 84 139 1
152 85 140 1
153 141 142 2
154 141 144 2
155 143 145 1
156 143 146 1
157 143 147 1
