# Title Card Required
# Created by GaussView 5.0.9
#

#
#

@<TRIPOS>MOLECULE
Molecule Name
58 59
SMALL
NO_CHARGES


@<TRIPOS>ATOM
1 C1    -3.4034     3.0136    -1.0360 C
2 C2    -4.6368     2.6422    -0.6327 C
3 C3    -4.8219     1.1830    -0.6496 C
4 C4    -4.4330     0.6665    -1.8299 C
5 H5    -5.3091     3.3901    -0.2213 H
6 H6    -3.0561     4.0428    -1.0326 H
7 H7    -4.5937     1.1942    -2.7682 H
8 H8    -4.6922     0.6150     0.2672 H
9 O9    -2.3846     2.1859    -1.4986 O
10 P10    -2.0667     0.5606    -1.3401 P
11 O11    -3.3986    -0.2683    -1.9117 O
12 O12    -0.9054     0.2595    -2.2359 O
13 N13    -1.8928     0.4014     0.2654 N
14 S14    -1.5221    -0.9637     0.9869 S
15 O15    -1.6905    -2.1921     0.1969 O
16 O16    -0.2587    -0.8260     1.7610 O
17 C17    -2.8063    -1.0514     2.3382 C
18 F18    -2.7599     0.0350     3.1131 F
19 F19    -4.0323    -1.1452     1.7992 F
20 F20    -2.5846    -2.1344     3.0868 F
21 H21     1.3796    -0.5228     1.1613 H
22 C22     2.9982     0.6547     0.4588 C
23 N23     2.3517    -0.5007     0.8045 N
24 S24     3.0601    -2.0371     0.5476 S
25 O25     4.2904    -1.7659    -0.2051 O
26 O26     3.0990    -2.7608     1.8144 O
27 C27    -0.0022    -3.9364    -2.1449 C
28 C28     0.5277    -2.6619    -2.3641 C
29 N29     1.4474    -2.1177    -1.5600 N
30 C30     1.8256    -2.8349    -0.5090 C
31 C31     1.3659    -4.1029    -0.1768 C
32 C32     0.4242    -4.6667    -1.0398 C
33 H33    -0.7513    -4.3318    -2.8220 H
34 H34     0.1873    -2.0445    -3.1888 H
35 H35     1.7157    -4.6029     0.7178 H
36 H36     0.0185    -5.6524    -0.8358 H
37 C37     1.7523     4.3488     2.2205 C
38 C38     0.7909     3.3988     1.8750 C
39 C39     1.1680     2.1928     1.2848 C
40 C40     2.5256     1.9276     1.0399 C
41 C41     3.4857     2.8983     1.3734 C
42 C42     3.1035     4.0964     1.9678 C
43 H43     1.4523     5.2835     2.6849 H
44 H44    -0.2607     3.5868     2.0663 H
45 H45     0.4006     1.4687     1.0342 H
46 H46     4.5367     2.7022     1.1791 H
47 H47     3.8570     4.8303     2.2368 H
48 H48     4.0739     0.5297     0.4017 H
49 C49     1.5478     2.5863    -2.1690 C
50 C50     2.8719     3.0832    -2.1846 C
51 C51     3.6964     2.0145    -1.8834 C
52 C52     2.8738     0.8798    -1.5960 C
53 H53     0.6111     3.0946    -2.3533 H
54 H54     3.1580     4.1052    -2.3866 H
55 H55     4.7754     2.0252    -1.8040 H
56 H56     3.1328    -0.1546    -1.7802 H
57 N57     1.5658     1.2870    -1.8720 N
58 H58     0.7059     0.7027    -1.8897 H
@<TRIPOS>BOND
1 1 2 2
2 1 6 1
3 1 9 1
4 2 3 1
5 2 5 1
6 3 4 2
7 3 8 1
8 4 7 1
9 4 11 1
10 9 10 1
11 10 11 1
12 10 12 2
13 10 13 Ar
14 13 14 Ar
15 14 15 2
16 14 16 2
17 14 17 1
18 17 18 1
19 17 19 1
20 17 20 1
21 21 23 1
22 22 23 Ar
23 22 40 1
24 22 48 1
25 23 24 1
26 24 25 2
27 24 26 2
28 24 30 1
29 27 28 Ar
30 27 32 Ar
31 27 33 1
32 28 29 Ar
33 28 34 1
34 29 30 Ar
35 30 31 Ar
36 31 32 Ar
37 31 35 1
38 32 36 1
39 37 38 Ar
40 37 42 Ar
41 37 43 1
42 38 39 Ar
43 38 44 1
44 39 40 Ar
45 39 45 1
46 40 41 Ar
47 41 42 Ar
48 41 46 1
49 42 47 1
50 49 50 Ar
51 49 53 1
52 49 57 Ar
53 50 51 2
54 50 54 1
55 51 52 Ar
56 51 55 1
57 52 56 1
58 52 57 1
59 57 58 1
