# Title Card Required
# Created by GaussView 5.0.9
#

#
#

@<TRIPOS>MOLECULE
Molecule Name
58 59
SMALL
NO_CHARGES


@<TRIPOS>ATOM
1 C1     5.0133    -2.0058     0.6654 C
2 C2     5.9147    -1.0718     0.2945 C
3 C3     5.3911    -0.1526    -0.7288 C
4 C4     4.8376    -0.8418    -1.7447 C
5 H5     6.8489    -0.9891     0.8434 H
6 H6     5.1898    -2.7348     1.4508 H
7 H7     5.2613    -1.7810    -2.0958 H
8 H8     4.9757     0.8033    -0.4202 H
9 O9     3.7353    -2.1925     0.1454 O
10 P10     2.6957    -1.2083    -0.6808 P
11 O11     3.4861    -0.7136    -2.0666 O
12 O12     1.5188    -2.0356    -1.0815 O
13 N13     2.4900     0.0331     0.3378 N
14 S14     1.4640     1.2100     0.1289 S
15 O15     1.3266     1.7507    -1.2343 O
16 O16     0.1807     1.0040     0.8663 O
17 C17     2.3075     2.5449     1.1177 C
18 F18     1.5634     3.6604     1.0579 F
19 F19     2.4506     2.1911     2.3951 F
20 F20     3.5127     2.8107     0.5985 F
21 H21    -1.3345     0.3356     0.2191 H
22 C22    -2.8075    -1.1767     0.0408 C
23 N23    -2.3036     0.0981    -0.0586 N
24 S24    -2.9698     1.1535    -1.2415 S
25 O25    -2.1502     1.0639    -2.4560 O
26 O26    -4.3973     0.8403    -1.2946 O
27 C27    -2.2372     5.1404     0.7093 C
28 C28    -3.3512     4.3431     0.9892 C
29 N29    -3.5606     3.1572     0.4094 N
30 C30    -2.6522     2.7634    -0.4728 C
31 C31    -1.5023     3.4568    -0.8409 C
32 C32    -1.2969     4.6869    -0.2129 C
33 H33    -2.1121     6.0925     1.2147 H
34 H34    -4.1007     4.6646     1.7081 H
35 H35    -0.7946     3.0411    -1.5481 H
36 H36    -0.4106     5.2700    -0.4395 H
37 C37    -1.8001    -3.6220     3.4096 C
38 C38    -0.8770    -2.6808     2.9472 C
39 C39    -1.1721    -1.8830     1.8444 C
40 C40    -2.4099    -2.0184     1.1917 C
41 C41    -3.3264    -2.9767     1.6549 C
42 C42    -3.0269    -3.7690     2.7612 C
43 H43    -1.5638    -4.2377     4.2724 H
44 H44     0.0787    -2.5618     3.4476 H
45 H45    -0.4430    -1.1514     1.5121 H
46 H46    -4.2836    -3.0887     1.1540 H
47 H47    -3.7513    -4.4953     3.1166 H
48 H48    -3.8672    -1.1983    -0.1954 H
49 C49    -1.1872    -4.1080    -1.1368 C
50 C50    -2.5429    -4.4454    -1.3797 C
51 C51    -3.1789    -3.2749    -1.7381 C
52 C52    -2.2380    -2.1954    -1.6244 C
53 H53    -0.3643    -4.7391    -0.8292 H
54 H54    -2.9692    -5.4342    -1.2920 H
55 H55    -4.2209    -3.1496    -2.0017 H
56 H56    -2.2197    -1.3327    -2.2821 H
57 N57    -1.0072    -2.8076    -1.3379 N
58 H58    -0.0755    -2.3468    -1.2464 H
@<TRIPOS>BOND
1 1 2 2
2 1 6 1
3 1 9 1
4 2 3 1
5 2 5 1
6 3 4 2
7 3 8 1
8 4 7 1
9 4 11 1
10 9 10 1
11 10 11 1
12 10 12 2
13 10 13 Ar
14 13 14 Ar
15 14 15 2
16 14 16 2
17 14 17 1
18 17 18 1
19 17 19 1
20 17 20 1
21 21 23 1
22 22 23 Ar
23 22 40 1
24 22 48 1
25 23 24 1
26 24 25 2
27 24 26 2
28 24 30 1
29 27 28 Ar
30 27 32 Ar
31 27 33 1
32 28 29 Ar
33 28 34 1
34 29 30 Ar
35 30 31 Ar
36 31 32 Ar
37 31 35 1
38 32 36 1
39 37 38 Ar
40 37 42 Ar
41 37 43 1
42 38 39 Ar
43 38 44 1
44 39 40 Ar
45 39 45 1
46 40 41 Ar
47 41 42 Ar
48 41 46 1
49 42 47 1
50 49 50 Ar
51 49 53 1
52 49 57 Ar
53 50 51 2
54 50 54 1
55 51 52 Ar
56 51 55 1
57 52 56 1
58 52 57 1
59 57 58 1
