# Title Card Required
# Created by GaussView 5.0.9
#

#
#

@<TRIPOS>MOLECULE
Molecule Name
141 150
SMALL
NO_CHARGES


@<TRIPOS>ATOM
1 C1     0.9440     5.3192    -0.5667 C
2 C2     1.7396     4.0611    -0.4905 C
3 C3     1.5088     6.4533    -0.9965 C
4 C4     3.0235     4.0764    -0.9068 C
5 C5     1.1357     2.7788    -0.0149 C
6 C6     3.6415     5.3390    -1.3754 C
7 C7     3.8140     2.8342    -0.9099 C
8 C8     2.9234     6.4659    -1.4123 C
9 C9     1.8243     1.6178    -0.1521 C
10 C10    -0.2431     2.7635     0.5300 C
11 C11     3.2649     1.6661    -0.5429 C
12 O12     1.2696     0.4200     0.2430 O
13 Si13     4.3231     0.1257    -0.5408 Si
14 C14    -0.6074     3.4551     1.6333 C
15 C15    -1.2603     1.9941    -0.2250 C
16 C16    -2.0430     3.5323     2.0053 C
17 C17     0.3656     4.1605     2.5035 C
18 C18    -2.9689     2.9240     1.2519 C
19 C19    -2.4242     4.3180     3.1952 C
20 C20    -2.5688     2.1227     0.0731 C
21 Si21    -3.9211     1.2863    -0.9022 Si
22 O22    -0.8337     1.1489    -1.2149 O
23 C23    -0.0537     4.8491     3.5717 C
24 C24    -1.4877     4.9350     3.9243 C
25 P25    -0.0247    -0.1514    -0.6173 P
26 O26     0.4097    -0.9737    -1.8021 O
27 O27    -0.9148    -0.8283     0.4210 O
28 C28     3.6336    -1.0246    -1.8260 C
29 C29     6.0823     0.5345    -0.9913 C
30 C30     4.4354    -0.6102     1.1641 C
31 C31    -4.6139    -0.1289     0.0954 C
32 C32    -5.2278     2.5859    -1.1955 C
33 C33    -3.2817     0.6486    -2.5384 C
34 C34     3.5108    -2.3441    -1.6086 C
35 C35     3.2865    -0.4699    -3.1573 C
36 C36     6.8188     1.3045    -0.1720 C
37 C37     6.6975    -0.0106    -2.2266 C
38 C38     5.1853    -1.7054     1.3761 C
39 C39     3.8265     0.0868     2.3237 C
40 C40    -4.1104    -0.4442     1.3018 C
41 C41    -5.7333    -0.9317    -0.4556 C
42 C42    -4.8805     3.7827    -1.7012 C
43 C43    -6.6429     2.3493    -0.8119 C
44 C44    -2.8073     1.4945    -3.4699 C
45 C45    -3.2059    -0.8113    -2.7877 C
46 C46     3.0757    -3.2380    -2.7022 C
47 C47     2.7580    -2.7319    -3.8990 C
48 C48     2.8635    -1.2789    -4.1361 C
49 C49     8.2210     1.6238    -0.5104 C
50 C50     8.7676     1.1376    -1.6306 C
51 C51     7.9695     0.2785    -2.5285 C
52 C52     5.3447    -2.2483     2.7409 C
53 C53     4.7797    -1.6242     3.7803 C
54 C54     3.9975    -0.3915     3.5628 C
55 C55    -4.6821    -1.5650     2.0770 C
56 C56    -5.7032    -2.2728     1.5813 C
57 C57    -6.2563    -1.9386     0.2543 C
58 C58    -5.9014     4.8273    -1.9230 C
59 C59    -7.1781     4.5961    -1.5998 C
60 C60    -7.5648     3.2999    -1.0099 C
61 C61    -2.2272     0.9749    -4.7262 C
62 C62    -2.1587    -0.3438    -4.9389 C
63 C63    -2.6707    -1.2807    -3.9206 C
64 C64    -3.4735    -6.4830    -0.1224 C
65 C65    -2.2949    -6.0386     0.4673 C
66 C66    -1.9358    -4.6813     0.4201 C
67 C67    -2.7690    -3.7728    -0.2510 C
68 C68    -3.9390    -4.2289    -0.8588 C
69 C69    -4.2972    -5.5756    -0.7916 C
70 C70    -0.6945    -4.2728     1.1062 C
71 N71    -0.6017    -3.0263     1.6544 N
72 S72     0.6204    -2.7745     2.8266 S
73 O73     0.4834    -3.8538     3.8146 O
74 O74     1.9100    -2.5567     2.1699 O
75 C75    -0.0234    -1.2191     3.5222 C
76 C76    -1.3431    -1.1810     3.9708 C
77 C77    -1.7979     0.0315     4.4824 C
78 C78    -0.9171     1.1121     4.5371 C
79 C79     0.3899     0.9358     4.0827 C
80 N80     0.8348    -0.2187     3.5746 N
81 N81     0.2574    -3.5807    -1.4320 N
82 C82    -0.1694    -4.3906    -2.4003 C
83 C83     0.1231    -5.7337    -2.0658 C
84 C84     0.7627    -5.7016    -0.8391 C
85 C85     0.7787    -4.3472    -0.3835 C
86 H86    -0.1019     5.3324    -0.2918 H
87 H87     0.9256     7.3636    -1.0506 H
88 H88     4.6773     5.3536    -1.6914 H
89 H89     4.8447     2.8890    -1.2300 H
90 H90     3.3751     7.3874    -1.7562 H
91 H91     1.4278     4.1123     2.3008 H
92 H92    -4.0175     2.9965     1.5164 H
93 H93    -3.4647     4.3996     3.4860 H
94 H94     0.6712     5.3516     4.1992 H
95 H95    -1.7809     5.5060     4.7958 H
96 H96    -0.7844    -2.1123     1.0707 H
97 H97     3.7455    -2.7809    -0.6503 H
98 H98     3.3741     0.5932    -3.3438 H
99 H99     6.3958     1.7037     0.7418 H
100 H100     6.1306    -0.6476    -2.8913 H
101 H101     5.6996    -2.1937     0.5578 H
102 H102     3.2618     0.9983     2.1848 H
103 H103    -3.2853     0.1087     1.7286 H
104 H104    -6.1330    -0.7053    -1.4362 H
105 H105    -3.8495     4.0146    -1.9292 H
106 H106    -6.9458     1.4206    -0.3541 H
107 H107    -2.8046     2.5611    -3.3072 H
108 H108    -3.5622    -1.5090    -2.0499 H
109 H109     3.0074    -4.3040    -2.5291 H
110 H110     2.4284    -3.3860    -4.6957 H
111 H111     2.6076    -0.8716    -5.1055 H
112 H112     8.8044     2.2514     0.1509 H
113 H113     9.7950     1.3697    -1.8797 H
114 H114     8.4178    -0.1195    -3.4298 H
115 H115     5.9279    -3.1463     2.8980 H
116 H116     4.9004    -2.0162     4.7818 H
117 H117     3.5637     0.1247     4.4094 H
118 H118    -4.2774    -1.8088     3.0497 H
119 H119    -6.1220    -3.0938     2.1485 H
120 H120    -7.0739    -2.5212    -0.1499 H
121 H121    -5.6120     5.7812    -2.3448 H
122 H122    -7.9272     5.3608    -1.7597 H
123 H123    -8.5949     3.1248    -0.7271 H
124 H124    -1.8474     1.6648    -5.4687 H
125 H125    -1.7265    -0.7262    -5.8545 H
126 H126    -2.6088    -2.3478    -4.0906 H
127 H127    -3.7472    -7.5319    -0.0624 H
128 H128    -1.6478    -6.7440     0.9815 H
129 H129    -2.5021    -2.7207    -0.2816 H
130 H130    -4.5807    -3.5350    -1.3899 H
131 H131    -5.2153    -5.9166    -1.2606 H
132 H132    -0.2533    -5.0494     1.7280 H
133 H133    -1.9780    -2.0559     3.9090 H
134 H134    -2.8210     0.1295     4.8316 H
135 H135    -1.2324     2.0717     4.9327 H
136 H136     1.1116     1.7477     4.1247 H
137 H137     0.2861    -2.5158    -1.5174 H
138 H138    -0.6488    -3.9913    -3.2839 H
139 H139    -0.1233    -6.5995    -2.6632 H
140 H140     1.1325    -6.5461    -0.2729 H
141 H141     1.5309    -3.8981     0.2547 H
@<TRIPOS>BOND
1 1 2 1
2 1 3 2
3 1 86 1
4 2 4 2
5 2 5 1
6 3 8 1
7 3 87 1
8 4 6 1
9 4 7 1
10 5 9 2
11 5 10 1
12 6 8 2
13 6 88 1
14 7 11 2
15 7 89 1
16 8 90 1
17 9 11 1
18 9 12 1
19 10 14 2
20 10 15 1
21 11 13 1
22 12 25 1
23 13 28 1
24 13 29 1
25 13 30 1
26 14 16 1
27 14 17 1
28 15 20 2
29 15 22 1
30 16 18 2
31 16 19 1
32 17 23 2
33 17 91 1
34 18 20 1
35 18 92 1
36 19 24 2
37 19 93 1
38 20 21 1
39 21 31 1
40 21 32 1
41 21 33 1
42 22 25 1
43 23 24 1
44 23 94 1
45 24 95 1
46 25 26 2
47 25 27 2
48 28 34 2
49 28 35 1
50 29 36 2
51 29 37 1
52 30 38 2
53 30 39 1
54 31 40 2
55 31 41 1
56 32 42 2
57 32 43 1
58 33 44 2
59 33 45 1
60 34 46 1
61 34 97 1
62 35 48 2
63 35 98 1
64 36 49 1
65 36 99 1
66 37 51 2
67 37 100 1
68 38 52 1
69 38 101 1
70 39 54 2
71 39 102 1
72 40 55 1
73 40 103 1
74 41 57 2
75 41 104 1
76 42 58 1
77 42 105 1
78 43 60 2
79 43 106 1
80 44 61 1
81 44 107 1
82 45 63 2
83 45 108 1
84 46 47 2
85 46 109 1
86 47 48 1
87 47 110 1
88 48 111 1
89 49 50 2
90 49 112 1
91 50 51 1
92 50 113 1
93 51 114 1
94 52 53 2
95 52 115 1
96 53 54 1
97 53 116 1
98 54 117 1
99 55 56 2
100 55 118 1
101 56 57 1
102 56 119 1
103 57 120 1
104 58 59 2
105 58 121 1
106 59 60 1
107 59 122 1
108 60 123 1
109 61 62 2
110 61 124 1
111 62 63 1
112 62 125 1
113 63 126 1
114 64 65 Ar
115 64 69 Ar
116 64 127 1
117 65 66 Ar
118 65 128 1
119 66 67 Ar
120 66 70 1
121 67 68 Ar
122 67 129 1
123 68 69 Ar
124 68 130 1
125 69 131 1
126 70 71 Ar
127 70 132 1
128 71 72 1
129 72 73 2
130 72 74 2
131 72 75 1
132 75 76 Ar
133 75 80 2
134 76 77 Ar
135 76 133 1
136 77 78 Ar
137 77 134 1
138 78 79 Ar
139 78 135 1
140 79 80 Ar
141 79 136 1
142 81 82 Ar
143 81 85 1
144 82 83 Ar
145 82 138 1
146 83 84 2
147 83 139 1
148 84 85 Ar
149 84 140 1
150 85 141 1
