# Title Card Required
# Created by GaussView 5.0.9
#

#
#

@<TRIPOS>MOLECULE
Molecule Name
141 150
SMALL
NO_CHARGES


@<TRIPOS>ATOM
1 C1    -1.0100    -5.0912    -1.9104 C
2 C2    -1.7748    -3.8658    -1.5544 C
3 C3    -1.5873    -6.0626    -2.6272 C
4 C4    -3.0458    -3.7328    -1.9909 C
5 C5    -1.1530    -2.7653    -0.7627 C
6 C6    -3.6785    -4.8171    -2.7772 C
7 C7    -3.8208    -2.5269    -1.6423 C
8 C8    -2.9858    -5.9216    -3.0767 C
9 C9    -1.7822    -1.5739    -0.6698 C
10 C10     0.1211    -2.9799    -0.0339 C
11 C11    -3.2390    -1.5047    -0.9952 C
12 O12    -1.1645    -0.5106    -0.0520 O
13 Si13    -4.3024    -0.1496    -0.2662 Si
14 C14     0.2472    -3.9112     0.9394 C
15 C15     1.2854    -2.1335    -0.3956 C
16 C16     1.5822    -4.1725     1.5323 C
17 C17    -0.8994    -4.6960     1.4648 C
18 C18     2.6529    -3.4858     1.1142 C
19 C19     1.7059    -5.2179     2.5677 C
20 C20     2.5115    -2.4169     0.0997 C
21 Si21     4.0257    -1.4428    -0.4100 Si
22 O22     1.1089    -1.1394    -1.3228 O
23 C23    -0.7131    -5.6199     2.4148 C
24 C24     0.6270    -5.8942     2.9761 C
25 P25     0.1763     0.1211    -0.8260 P
26 O26    -0.1846     0.8592    -2.0886 O
27 O27     0.8835     0.8888     0.2716 O
28 C28    -3.9839     1.4561    -1.1534 C
29 C29    -6.1092    -0.5110    -0.5163 C
30 C30    -3.9507    -0.1391     1.5704 C
31 C31     4.2009     0.0654     0.6625 C
32 C32     5.5967    -2.4135    -0.1590 C
33 C33     3.8125    -0.9980    -2.2062 C
34 C34    -4.6468     2.5754    -0.8143 C
35 C35    -3.1310     1.4642    -2.3656 C
36 C36    -6.6477    -0.4267    -1.7447 C
37 C37    -6.9719    -0.8738     0.6348 C
38 C38    -4.1888     0.9411     2.3332 C
39 C39    -3.4939    -1.3940     2.2230 C
40 C40     3.3687     0.2878     1.6940 C
41 C41     5.3331     0.9925     0.4282 C
42 C42     6.0486    -2.6430     1.0865 C
43 C43     6.4027    -2.8753    -1.3171 C
44 C44     3.6111    -1.9641    -3.1187 C
45 C45     3.7436     0.4206    -2.6259 C
46 C46    -4.4469     3.8232    -1.5806 C
47 C47    -3.6515     3.8293    -2.6557 C
48 C48    -2.9762     2.5870    -3.0776 C
49 C49    -8.0850    -0.7019    -1.9478 C
50 C50    -8.8581    -1.0315    -0.9066 C
51 C51    -8.2743    -1.1211     0.4472 C
52 C52    -3.9402     0.8989     3.7895 C
53 C53    -3.5108    -0.2292     4.3651 C
54 C54    -3.2855    -1.4343     3.5442 C
55 C55     3.5406     1.4847     2.5429 C
56 C56     4.5504     2.3312     2.3122 C
57 C57     5.4986     2.0654     1.2117 C
58 C58     7.3068    -3.3871     1.3003 C
59 C59     8.0164    -3.8190     0.2520 C
60 C60     7.5454    -3.5448    -1.1198 C
61 C61     3.3628    -1.6135    -4.5327 C
62 C62     3.3118    -0.3293    -4.9059 C
63 C63     3.5049     0.7377    -3.9038 C
64 C64     3.6352     6.4200    -0.7906 C
65 C65     2.3972     6.0807    -0.2550 C
66 C66     2.0117     4.7354    -0.1328 C
67 C67     2.8812     3.7285    -0.5801 C
68 C68     4.1171     4.0759    -1.1263 C
69 C69     4.4983     5.4141    -1.2287 C
70 C70     0.7082     4.4492     0.5001 C
71 N71     0.5409     3.2921     1.2110 N
72 S72    -0.8514     3.1898     2.2103 S
73 O73    -0.9943     4.4801     2.8835 O
74 O74    -1.9540     2.6603     1.3964 O
75 C75    -0.3151     1.8902     3.3603 C
76 C76    -0.4667     0.5591     2.9774 C
77 C77    -0.0057    -0.3991     3.8803 C
78 C78     0.5473     0.0174     5.0893 C
79 C79     0.6293     1.3864     5.3564 C
80 N80     0.2117     2.3225     4.4973 N
81 N81    -0.0954     3.4893    -2.0026 N
82 C82     0.3830     4.1835    -3.0321 C
83 C83     0.0897     5.5585    -2.8620 C
84 C84    -0.6040     5.6665    -1.6712 C
85 C85    -0.6545     4.3701    -1.0675 C
86 H86     0.0212    -5.2064    -1.6029 H
87 H87    -1.0277    -6.9525    -2.8850 H
88 H88    -4.7035    -4.7192    -3.1127 H
89 H89    -4.8782    -2.5163    -1.8645 H
90 H90    -3.4478    -6.7130    -3.6527 H
91 H91    -1.9051    -4.5214     1.1061 H
92 H92     3.6210    -3.7038     1.5392 H
93 H93     2.6714    -5.4428     3.0051 H
94 H94    -1.5620    -6.1779     2.7886 H
95 H95     0.7318    -6.6561     3.7379 H
96 H96     0.7676     2.3362     0.7801 H
97 H97    -5.3683     2.5764    -0.0106 H
98 H98    -2.6596     0.5537    -2.7082 H
99 H99    -6.0389    -0.1591    -2.5997 H
100 H100    -6.5587    -0.9472     1.6318 H
101 H101    -4.5562     1.8594     1.9085 H
102 H102    -3.3398    -2.2924     1.6407 H
103 H103     2.5608    -0.3953     1.9199 H
104 H104     6.0304     0.8059    -0.3790 H
105 H105     5.5053    -2.2804     1.9503 H
106 H106     6.0875    -2.6694    -2.3290 H
107 H107     3.6122    -3.0079    -2.8293 H
108 H108     3.8616     1.2067    -1.9008 H
109 H109    -4.9553     4.7288    -1.2764 H
110 H110    -3.5066     4.7406    -3.2213 H
111 H111    -2.3585     2.5860    -3.9663 H
112 H112    -8.5103    -0.6352    -2.9408 H
113 H113    -9.9113    -1.2331    -1.0535 H
114 H114    -8.9029    -1.3881     1.2869 H
115 H115    -4.1061     1.7847     4.3888 H
116 H116    -3.3259    -0.2604     5.4310 H
117 H117    -2.9508    -2.3504     4.0136 H
118 H118     2.8484     1.6738     3.3518 H
119 H119     4.6766     3.2091     2.9323 H
120 H120     6.3218     2.7453     1.0350 H
121 H121     7.6536    -3.5792     2.3074 H
122 H122     8.9395    -4.3626     0.4065 H
123 H123     8.1316    -3.8796    -1.9659 H
124 H124     3.2142    -2.3979    -5.2634 H
125 H125     3.1237    -0.0701    -5.9397 H
126 H126     3.4448     1.7762    -4.2034 H
127 H127     3.9264     7.4634    -0.8631 H
128 H128     1.7238     6.8616     0.0873 H
129 H129     2.5949     2.6855    -0.4825 H
130 H130     4.7976     3.3033    -1.4673 H
131 H131     5.4666     5.6714    -1.6478 H
132 H132     0.2484     5.3061     0.9868 H
133 H133    -0.9038     0.2895     2.0248 H
134 H134    -0.0837    -1.4544     3.6368 H
135 H135     0.9117    -0.7002     5.8172 H
136 H136     1.0519     1.7481     6.2906 H
137 H137    -0.1110     2.4219    -1.9599 H
138 H138     0.9039     3.6875    -3.8403 H
139 H139     0.3711     6.3508    -3.5406 H
140 H140    -0.9924     6.5700    -1.2204 H
141 H141    -1.4604     3.9948    -0.4470 H
@<TRIPOS>BOND
1 1 2 1
2 1 3 2
3 1 86 1
4 2 4 2
5 2 5 1
6 3 8 1
7 3 87 1
8 4 6 1
9 4 7 1
10 5 9 2
11 5 10 1
12 6 8 2
13 6 88 1
14 7 11 2
15 7 89 1
16 8 90 1
17 9 11 1
18 9 12 1
19 10 14 2
20 10 15 1
21 11 13 1
22 12 25 1
23 13 28 1
24 13 29 1
25 13 30 1
26 14 16 1
27 14 17 1
28 15 20 2
29 15 22 1
30 16 18 2
31 16 19 1
32 17 23 2
33 17 91 1
34 18 20 1
35 18 92 1
36 19 24 2
37 19 93 1
38 20 21 1
39 21 31 1
40 21 32 1
41 21 33 1
42 22 25 1
43 23 24 1
44 23 94 1
45 24 95 1
46 25 26 2
47 25 27 2
48 28 34 2
49 28 35 1
50 29 36 2
51 29 37 1
52 30 38 2
53 30 39 1
54 31 40 2
55 31 41 1
56 32 42 2
57 32 43 1
58 33 44 2
59 33 45 1
60 34 46 1
61 34 97 1
62 35 48 2
63 35 98 1
64 36 49 1
65 36 99 1
66 37 51 2
67 37 100 1
68 38 52 1
69 38 101 1
70 39 54 2
71 39 102 1
72 40 55 1
73 40 103 1
74 41 57 2
75 41 104 1
76 42 58 1
77 42 105 1
78 43 60 2
79 43 106 1
80 44 61 1
81 44 107 1
82 45 63 2
83 45 108 1
84 46 47 2
85 46 109 1
86 47 48 1
87 47 110 1
88 48 111 1
89 49 50 2
90 49 112 1
91 50 51 1
92 50 113 1
93 51 114 1
94 52 53 2
95 52 115 1
96 53 54 1
97 53 116 1
98 54 117 1
99 55 56 2
100 55 118 1
101 56 57 1
102 56 119 1
103 57 120 1
104 58 59 2
105 58 121 1
106 59 60 1
107 59 122 1
108 60 123 1
109 61 62 2
110 61 124 1
111 62 63 1
112 62 125 1
113 63 126 1
114 64 65 Ar
115 64 69 Ar
116 64 127 1
117 65 66 Ar
118 65 128 1
119 66 67 Ar
120 66 70 1
121 67 68 Ar
122 67 129 1
123 68 69 Ar
124 68 130 1
125 69 131 1
126 70 71 Ar
127 70 132 1
128 71 72 1
129 72 73 2
130 72 74 2
131 72 75 1
132 75 76 Ar
133 75 80 Ar
134 76 77 Ar
135 76 133 1
136 77 78 Ar
137 77 134 1
138 78 79 Ar
139 78 135 1
140 79 80 Ar
141 79 136 1
142 81 82 Ar
143 81 85 1
144 82 83 Ar
145 82 138 1
146 83 84 2
147 83 139 1
148 84 85 Ar
149 84 140 1
150 85 141 1
