# Title Card Required
# Created by GaussView 5.0.9
#

#
#

@<TRIPOS>MOLECULE
Molecule Name
141 150
SMALL
NO_CHARGES


@<TRIPOS>ATOM
1 C1    -0.4519    -5.3920    -0.4267 C
2 C2    -1.3645    -4.2194    -0.3072 C
3 C3    -0.9263    -6.5848    -0.8039 C
4 C4    -2.6645    -4.3704    -0.6391 C
5 C5    -0.8675    -2.8784     0.1318 C
6 C6    -3.1814    -5.6972    -1.0491 C
7 C7    -3.5688    -3.2083    -0.6319 C
8 C8    -2.3571    -6.7472    -1.1204 C
9 C9    -1.6720    -1.7918     0.0105 C
10 C10     0.5245    -2.7255     0.6270 C
11 C11    -3.1054    -1.9790    -0.3634 C
12 O12    -1.2489    -0.5525     0.4367 O
13 Si13    -4.2732    -0.5225    -0.4282 Si
14 C14     1.0114    -3.4086     1.6880 C
15 C15     1.4280    -1.8497    -0.1573 C
16 C16     2.4687    -3.3701     1.9758 C
17 C17     0.1558    -4.2192     2.5894 C
18 C18     3.2950    -2.6701     1.1864 C
19 C19     2.9853    -4.1523     3.1160 C
20 C20     2.7603    -1.8906     0.0474 C
21 Si21     3.9578    -0.9680    -1.0430 Si
22 O22     0.8769    -1.0151    -1.0949 O
23 C23     0.6956    -4.9007     3.6069 C
24 C24     2.1502    -4.8715     3.8742 C
25 P25    -0.0145     0.1832    -0.4080 P
26 O26    -0.5487     1.0295    -1.5322 O
27 O27     0.8036     0.8772     0.6635 O
28 C28    -3.8924     0.5585    -1.8920 C
29 C29    -6.0300    -1.0746    -0.6965 C
30 C30    -4.1340     0.3534     1.2056 C
31 C31     4.2924     0.7160    -0.3201 C
32 C32     5.5364    -1.9556    -1.1385 C
33 C33     3.2162    -0.8235    -2.7485 C
34 C34    -2.9875     0.1813    -2.8108 C
35 C35    -4.6827     1.7931    -2.1158 C
36 C36    -6.9744    -0.9016     0.2441 C
37 C37    -6.4033    -1.6735    -2.0014 C
38 C38    -3.9740     1.6838     1.2863 C
39 C39    -4.2374    -0.4454     2.4510 C
40 C40     4.9685     1.6367    -1.0284 C
41 C41     3.8352     1.0465     1.0516 C
42 C42     6.7391    -1.3735    -0.9891 C
43 C43     5.4630    -3.4244    -1.3398 C
44 C44     3.1074    -1.9009    -3.5444 C
45 C45     2.6402     0.4661    -3.1977 C
46 C46    -2.7254     1.0316    -3.9906 C
47 C47    -3.4174     2.1627    -4.1687 C
48 C48    -4.4498     2.5576    -3.1896 C
49 C49    -8.3658    -1.3293    -0.0125 C
50 C50    -8.6937    -1.8790    -1.1877 C
51 C51    -7.6648    -2.0570    -2.2317 C
52 C52    -3.9601     2.3501     2.6049 C
53 C53    -4.0648     1.6264     3.7255 C
54 C54    -4.2015     0.1586     3.6447 C
55 C55     5.2385     2.9703    -0.4523 C
56 C56     4.8088     3.2679     0.7791 C
57 C57     4.0774     2.2577     1.5686 C
58 C58     7.9733    -2.1839    -1.0579 C
59 C59     7.8993    -3.5049    -1.2555 C
60 C60     6.5823    -4.1560    -1.3975 C
61 C61     2.4576    -1.7890    -4.8674 C
62 C62     1.9514    -0.6178    -5.2698 C
63 C63     2.0402     0.5636    -4.3897 C
64 C64     2.1829     6.5985    -1.5652 C
65 C65     1.4226     6.1577    -0.4853 C
66 C66     1.2856     4.7865    -0.2178 C
67 C67     1.8971     3.8552    -1.0715 C
68 C68     2.6476     4.3020    -2.1575 C
69 C69     2.7980     5.6684    -2.4033 C
70 C70     0.5097     4.3930     0.9778 C
71 N71     0.8367     3.2512     1.6630 N
72 S72     0.3056     3.1647     3.2915 S
73 O73     1.1247     4.0755     4.0859 O
74 O74    -1.1601     3.3254     3.3085 O
75 C75     0.6656     1.4319     3.6983 C
76 C76    -0.3458     0.4904     3.5287 C
77 C77    -0.0522    -0.8162     3.9103 C
78 C78     1.2129    -1.0991     4.4218 C
79 C79     2.1492    -0.0678     4.5190 C
80 N80     1.8799     1.1939     4.1671 N
81 N81    -1.3234     3.4883    -0.9453 N
82 C82    -1.5702     4.3540    -1.9251 C
83 C83    -1.9415     5.6066    -1.3794 C
84 C84    -1.8987     5.4614    -0.0058 C
85 C85    -1.4192     4.1451     0.2901 C
86 H86     0.6067    -5.2945    -0.2282 H
87 H87    -0.2584    -7.4323    -0.8896 H
88 H88    -4.2286    -5.8208    -1.2959 H
89 H89    -4.6083    -3.3697    -0.8770 H
90 H90    -2.7351    -7.7155    -1.4221 H
91 H91    -0.9170    -4.2554     2.4509 H
92 H92     4.3589    -2.6573     1.3910 H
93 H93     4.0443    -4.1510     3.3448 H
94 H94     0.0548    -5.4819     4.2575 H
95 H95     2.5424    -5.4401     4.7075 H
96 H96     0.8899     2.2915     1.1728 H
97 H97    -2.4309    -0.7401    -2.7032 H
98 H98    -5.4579     2.0782    -1.4158 H
99 H99    -6.7424    -0.4472     1.1967 H
100 H100    -5.6553    -1.8045    -2.7735 H
101 H101    -3.8735     2.2925     0.4011 H
102 H102    -4.3455    -1.5217     2.3994 H
103 H103     5.3189     1.4177    -2.0294 H
104 H104     3.3071     0.3130     1.6457 H
105 H105     6.8333    -0.3115    -0.8190 H
106 H106     4.5032    -3.9186    -1.4164 H
107 H107     3.4770    -2.8658    -3.2324 H
108 H108     2.6642     1.3242    -2.5482 H
109 H109    -1.9709     0.7371    -4.7086 H
110 H110    -3.2256     2.7875    -5.0313 H
111 H111    -5.0233     3.4616    -3.3478 H
112 H112    -9.1193    -1.1944     0.7527 H
113 H113    -9.7127    -2.1910    -1.3768 H
114 H114    -7.9342    -2.4958    -3.1836 H
115 H115    -3.8648     3.4267     2.6611 H
116 H116    -4.0480     2.1140     4.6914 H
117 H117    -4.2767    -0.4260     4.5523 H
118 H118     5.7735     3.7094    -1.0342 H
119 H119     4.9959     4.2477     1.1987 H
120 H120     3.7416     2.5007     2.5677 H
121 H121     8.9376    -1.7049    -0.9473 H
122 H122     8.8025    -4.0992    -1.3047 H
123 H123     6.5244    -5.2277    -1.5374 H
124 H124     2.3862    -2.6595    -5.5066 H
125 H125     1.4694    -0.5358    -6.2353 H
126 H126     1.6067     1.5042    -4.7043 H
127 H127     2.2959     7.6626    -1.7487 H
128 H128     0.9439     6.8804     0.1694 H
129 H129     1.7892     2.7939    -0.8747 H
130 H130     3.1297     3.5875    -2.8155 H
131 H131     3.3929     6.0049    -3.2471 H
132 H132     0.2805     5.2285     1.6352 H
133 H133    -1.3003     0.7654     3.1038 H
134 H134    -0.8003    -1.5949     3.8033 H
135 H135     1.4772    -2.1007     4.7426 H
136 H136     3.1504    -0.2571     4.8979 H
137 H137    -1.0234     2.4815    -1.1173 H
138 H138    -1.4662     4.0620    -2.9613 H
139 H139    -2.1993     6.4889    -1.9473 H
140 H140    -2.1313     6.2089     0.7411 H
141 H141    -1.7014     3.5809     1.1699 H
@<TRIPOS>BOND
1 1 2 1
2 1 3 2
3 1 86 1
4 2 4 2
5 2 5 1
6 3 8 1
7 3 87 1
8 4 6 1
9 4 7 1
10 5 9 2
11 5 10 1
12 6 8 2
13 6 88 1
14 7 11 2
15 7 89 1
16 8 90 1
17 9 11 1
18 9 12 1
19 10 14 2
20 10 15 1
21 11 13 1
22 12 25 1
23 13 28 1
24 13 29 1
25 13 30 1
26 14 16 1
27 14 17 1
28 15 20 2
29 15 22 1
30 16 18 2
31 16 19 1
32 17 23 2
33 17 91 1
34 18 20 1
35 18 92 1
36 19 24 2
37 19 93 1
38 20 21 1
39 21 31 1
40 21 32 1
41 21 33 1
42 22 25 1
43 23 24 1
44 23 94 1
45 24 95 1
46 25 26 2
47 25 27 2
48 28 34 2
49 28 35 1
50 29 36 2
51 29 37 1
52 30 38 2
53 30 39 1
54 31 40 2
55 31 41 1
56 32 42 2
57 32 43 1
58 33 44 2
59 33 45 1
60 34 46 1
61 34 97 1
62 35 48 2
63 35 98 1
64 36 49 1
65 36 99 1
66 37 51 2
67 37 100 1
68 38 52 1
69 38 101 1
70 39 54 2
71 39 102 1
72 40 55 1
73 40 103 1
74 41 57 2
75 41 104 1
76 42 58 1
77 42 105 1
78 43 60 2
79 43 106 1
80 44 61 1
81 44 107 1
82 45 63 2
83 45 108 1
84 46 47 2
85 46 109 1
86 47 48 1
87 47 110 1
88 48 111 1
89 49 50 2
90 49 112 1
91 50 51 1
92 50 113 1
93 51 114 1
94 52 53 2
95 52 115 1
96 53 54 1
97 53 116 1
98 54 117 1
99 55 56 2
100 55 118 1
101 56 57 1
102 56 119 1
103 57 120 1
104 58 59 2
105 58 121 1
106 59 60 1
107 59 122 1
108 60 123 1
109 61 62 2
110 61 124 1
111 62 63 1
112 62 125 1
113 63 126 1
114 64 65 Ar
115 64 69 Ar
116 64 127 1
117 65 66 Ar
118 65 128 1
119 66 67 Ar
120 66 70 1
121 67 68 Ar
122 67 129 1
123 68 69 Ar
124 68 130 1
125 69 131 1
126 70 71 Ar
127 70 132 1
128 71 72 1
129 72 73 2
130 72 74 2
131 72 75 1
132 75 76 Ar
133 75 80 Ar
134 76 77 Ar
135 76 133 1
136 77 78 Ar
137 77 134 1
138 78 79 Ar
139 78 135 1
140 79 80 Ar
141 79 136 1
142 81 82 Ar
143 81 85 1
144 82 83 Ar
145 82 138 1
146 83 84 2
147 83 139 1
148 84 85 Ar
149 84 140 1
150 85 141 1
