# Title Card Required
# Created by GaussView 5.0.9
#

#
#

@<TRIPOS>MOLECULE
Molecule Name
141 152
SMALL
NO_CHARGES


@<TRIPOS>ATOM
1 C1    -1.3502    -5.3504     0.2008 C
2 C2    -2.0723    -4.0458     0.2033 C
3 C3    -2.0143    -6.4935    -0.0052 C
4 C4    -3.3964    -4.0364    -0.0664 C
5 C5    -1.3614    -2.7525     0.4596 C
6 C6    -4.1234    -5.3088    -0.2862 C
7 C7    -4.1148    -2.7582    -0.2048 C
8 C8    -3.4679    -6.4730    -0.2491 C
9 C9    -2.0133    -1.5782     0.2439 C
10 C10     0.0727    -2.7581     0.8555 C
11 C11    -3.4604    -1.5930    -0.1118 C
12 O12    -1.4331    -0.3654     0.5446 O
13 Si13    -4.3541     0.0080    -0.4667 Si
14 C14     0.5400    -3.3916     1.9549 C
15 C15     1.0286    -2.0923    -0.0647 C
16 C16     2.0071    -3.5414     2.1433 C
17 C17    -0.3479    -3.9681     2.9940 C
18 C18     2.8603    -3.0487     1.2337 C
19 C19     2.4954    -4.2793     3.3246 C
20 C20     2.3550    -2.2935     0.0656 C
21 Si21     3.5902    -1.5992    -1.1479 Si
22 O22     0.5336    -1.2093    -0.9885 O
23 C23     0.1686    -4.6195     4.0428 C
24 C24     1.6292    -4.7861     4.2092 C
25 P25    -0.0793     0.1042    -0.2496 P
26 O26    -0.4848     1.0072    -1.4538 O
27 O27     0.8383     0.7287     0.7410 O
28 C28    -3.7499     0.7398    -2.0663 C
29 C29    -6.1763    -0.2673    -0.7191 C
30 C30    -4.0702     1.1246     0.9925 C
31 C31     4.3324    -0.0295    -0.4682 C
32 C32     4.8998    -2.9018    -1.4027 C
33 C33     2.7341    -1.2538    -2.7707 C
34 C34    -2.8745     0.0805    -2.8447 C
35 C35    -4.3133     2.0282    -2.5365 C
36 C36    -7.0889     0.2428     0.1255 C
37 C37    -6.6301    -1.0229    -1.9120 C
38 C38    -3.6150     2.3802     0.8480 C
39 C39    -4.3653     0.6077     2.3507 C
40 C40     5.1822     0.6966    -1.2153 C
41 C41     3.9794     0.4417     0.8934 C
42 C42     6.2102    -2.6063    -1.3436 C
43 C43     4.4854    -4.3099    -1.6238 C
44 C44     2.2367    -2.2604    -3.5097 C
45 C45     2.4950     0.1447    -3.2033 C
46 C46    -2.4251     0.6696    -4.1232 C
47 C47    -2.9144     1.8473    -4.5276 C
48 C48    -3.9114     2.5555    -3.6995 C
49 C49    -8.5304     0.0273    -0.1198 C
50 C50    -8.9331    -0.6655    -1.1916 C
51 C51    -7.9363    -1.2137    -2.1330 C
52 C52    -3.4764     3.2578     2.0284 C
53 C53    -3.7571     2.7908     3.2505 C
54 C54    -4.2127     1.3970     3.4205 C
55 C55     5.7575     1.9501    -0.6865 C
56 C56     5.4236     2.3770     0.5361 C
57 C57     4.4941     1.5848     1.3646 C
58 C58     7.2232    -3.6644    -1.5407 C
59 C59     6.8412    -4.9273    -1.7611 C
60 C60     5.4053    -5.2667    -1.7970 C
61 C61     1.4855    -1.9760    -4.7505 C
62 C62     1.2780    -0.7116    -5.1347 C
63 C63     1.8024     0.4009    -4.3193 C
64 C64     4.0848     6.0421    -1.2011 C
65 C65     3.0838     5.8199    -0.2551 C
66 C66     2.3195     4.6479    -0.2813 C
67 C67     2.5841     3.6906    -1.2688 C
68 C68     3.5765     3.9169    -2.2221 C
69 C69     4.3295     5.0916    -2.1915 C
70 C70     1.2217     4.4512     0.7513 C
71 N71     1.4911     3.2826     1.5974 N
72 S72     0.8348     3.3700     3.1497 S
73 O73     1.6716     4.2559     3.9609 O
74 O74    -0.6163     3.6619     3.0928 O
75 C75     0.9867     1.6420     3.7002 C
76 C76    -0.1703     0.8675     3.7594 C
77 C77    -0.0283    -0.4426     4.2112 C
78 C78     1.2400    -0.8969     4.5690 C
79 C79     2.3240    -0.0241     4.4577 C
80 N80     2.2032     1.2382     4.0335 N
81 N81    -0.4738     3.5379    -0.9745 N
82 C82    -0.9632     4.2221    -1.9616 C
83 C83    -1.0842     5.6422    -1.6757 C
84 C84    -0.6351     5.8068    -0.4142 C
85 C85    -0.2280     4.4736     0.1282 C
86 H86    -0.2796    -5.3939     0.3450 H
87 H87    -1.4835    -7.4369    -0.0070 H
88 H88    -5.1885    -5.3004    -0.4819 H
89 H89    -5.1697    -2.7851    -0.4368 H
90 H90    -3.9994    -7.4017    -0.4121 H
91 H91    -1.4224    -3.8547     2.9294 H
92 H92     3.9284    -3.1767     1.3647 H
93 H93     3.5586    -4.4162     3.4824 H
94 H94    -0.4942    -5.0293     4.7940 H
95 H95     2.0014    -5.3238     5.0717 H
96 H96     1.2969     2.3616     1.1732 H
97 H97    -2.4748    -0.8804    -2.5504 H
98 H98    -5.0542     2.5476    -1.9417 H
99 H99    -6.7938     0.8204     0.9899 H
100 H100    -5.9053    -1.4244    -2.6095 H
101 H101    -3.3601     2.7786    -0.1226 H
102 H102    -4.7072    -0.4114     2.4821 H
103 H103     5.4476     0.3808    -2.2167 H
104 H104     3.3066    -0.1318     1.5160 H
105 H105     6.5534    -1.6012    -1.1530 H
106 H106     3.4376    -4.5794    -1.6186 H
107 H107     2.3525    -3.2886    -3.2025 H
108 H108     2.8492     0.9679    -2.6058 H
109 H109    -1.6979     0.1461    -4.7301 H
110 H110    -2.5849     2.2809    -5.4629 H
111 H111    -4.3185     3.4995    -4.0375 H
112 H112    -9.2595     0.4337     0.5691 H
113 H113    -9.9886    -0.8224    -1.3727 H
114 H114    -8.2650    -1.7673    -3.0030 H
115 H115    -3.1515     4.2821     1.9016 H
116 H116    -3.6507     3.4324     4.1155 H
117 H117    -4.4283     1.0181     4.4110 H
118 H118     6.4367     2.5302    -1.2977 H
119 H119     5.8329     3.3025     0.9198 H
120 H120     4.2359     1.9314     2.3557 H
121 H121     8.2757    -3.4142    -1.5060 H
122 H122     7.5823    -5.7029    -1.9044 H
123 H123     5.0991    -6.2934    -1.9509 H
124 H124     1.0955    -2.7939    -5.3423 H
125 H125     0.7212    -0.5015    -6.0387 H
126 H126     1.6176     1.4239    -4.6211 H
127 H127     4.6717     6.9550    -1.1613 H
128 H128     2.9000     6.5615     0.5181 H
129 H129     2.0151     2.7683    -1.2873 H
130 H130     3.7724     3.1717    -2.9869 H
131 H131     5.1065     5.2602    -2.9313 H
132 H132     1.2470     5.3190     1.4182 H
133 H133    -1.1220     1.2803     3.4535 H
134 H134    -0.8933    -1.0954     4.2797 H
135 H135     1.3928    -1.9066     4.9345 H
136 H136     3.3281    -0.3469     4.7223 H
137 H137    -0.4464     2.0276    -1.1878 H
138 H138    -1.2464     3.7327    -2.8897 H
139 H139    -1.4680     6.3915    -2.3555 H
140 H140    -0.5779     6.7292     0.1504 H
141 H141    -0.8897     4.1935     0.9610 H
@<TRIPOS>BOND
1 1 2 1
2 1 3 2
3 1 86 1
4 2 4 2
5 2 5 1
6 3 8 1
7 3 87 1
8 4 6 1
9 4 7 1
10 5 9 2
11 5 10 1
12 6 8 2
13 6 88 1
14 7 11 2
15 7 89 1
16 8 90 1
17 9 11 1
18 9 12 1
19 10 14 2
20 10 15 1
21 11 13 1
22 12 25 1
23 13 28 1
24 13 29 1
25 13 30 1
26 14 16 1
27 14 17 1
28 15 20 2
29 15 22 1
30 16 18 2
31 16 19 1
32 17 23 2
33 17 91 1
34 18 20 1
35 18 92 1
36 19 24 2
37 19 93 1
38 20 21 1
39 21 31 1
40 21 32 1
41 21 33 1
42 22 25 1
43 23 24 1
44 23 94 1
45 24 95 1
46 25 26 Ar
47 25 27 2
48 28 34 2
49 28 35 1
50 29 36 2
51 29 37 1
52 30 38 2
53 30 39 1
54 31 40 2
55 31 41 1
56 32 42 2
57 32 43 1
58 33 44 2
59 33 45 1
60 34 46 1
61 34 97 1
62 35 48 2
63 35 98 1
64 36 49 1
65 36 99 1
66 37 51 2
67 37 100 1
68 38 52 1
69 38 101 1
70 39 54 2
71 39 102 1
72 40 55 1
73 40 103 1
74 41 57 2
75 41 104 1
76 42 58 1
77 42 105 1
78 43 60 2
79 43 106 1
80 44 61 1
81 44 107 1
82 45 63 2
83 45 108 1
84 46 47 2
85 46 109 1
86 47 48 1
87 47 110 1
88 48 111 1
89 49 50 2
90 49 112 1
91 50 51 1
92 50 113 1
93 51 114 1
94 52 53 2
95 52 115 1
96 53 54 1
97 53 116 1
98 54 117 1
99 55 56 2
100 55 118 1
101 56 57 1
102 56 119 1
103 57 120 1
104 58 59 2
105 58 121 1
106 59 60 1
107 59 122 1
108 60 123 1
109 61 62 2
110 61 124 1
111 62 63 1
112 62 125 1
113 63 126 1
114 64 65 Ar
115 64 69 Ar
116 64 127 1
117 65 66 Ar
118 65 128 1
119 66 67 Ar
120 66 70 1
121 67 68 Ar
122 67 129 1
123 68 69 Ar
124 68 130 1
125 69 131 1
126 70 71 1
127 70 85 1
128 70 132 1
129 71 72 1
130 71 96 1
131 72 73 2
132 72 74 2
133 72 75 1
134 75 76 Ar
135 75 80 Ar
136 76 77 Ar
137 76 133 1
138 77 78 Ar
139 77 134 1
140 78 79 Ar
141 78 135 1
142 79 80 Ar
143 79 136 1
144 81 82 2
145 81 85 1
146 82 83 1
147 82 138 1
148 83 84 2
149 83 139 1
150 84 85 1
151 84 140 1
152 85 141 1
