# Title Card Required
# Created by GaussView 5.0.9
#

#
#

@<TRIPOS>MOLECULE
Molecule Name
141 152
SMALL
NO_CHARGES


@<TRIPOS>ATOM
1 C1    -0.3979     5.0426     1.9311 C
2 C2    -1.3053     4.0288     1.3277 C
3 C3    -0.8609     5.9076     2.8409 C
4 C4    -2.5902     3.9679     1.7429 C
5 C5    -0.8139     3.0467     0.3157 C
6 C6    -3.0939     4.9342     2.7462 C
7 C7    -3.4945     2.9349     1.2018 C
8 C8    -2.2737     5.8557     3.2626 C
9 C9    -1.6104     2.0309    -0.0679 C
10 C10     0.5377     3.1658    -0.2859 C
11 C11    -3.0442     2.0161     0.3337 C
12 O12    -1.0939     1.0298    -0.8491 O
13 Si13    -4.2606     0.7773    -0.3525 Si
14 C14     0.8958     4.2618    -0.9984 C
15 C15     1.5184     2.0483    -0.1025 C
16 C16     2.2974     4.4141    -1.4566 C
17 C17    -0.0584     5.3436    -1.3605 C
18 C18     3.2020     3.4698    -1.1821 C
19 C19     2.6765     5.6351    -2.1961 C
20 C20     2.8114     2.2389    -0.4593 C
21 Si21     4.1257     0.9369    -0.1779 Si
22 O22     1.1554     0.9054     0.5774 O
23 C23     0.3552     6.4196    -2.0401 C
24 C24     1.7628     6.5737    -2.4630 C
25 P25    -0.1228     0.0105     0.0034 P
26 O26    -0.8251    -0.4892     1.2492 O
27 O27     0.3676    -1.0170    -0.9920 O
28 C28    -4.6109    -0.5146     0.9488 C
29 C29    -5.8239     1.7240    -0.7369 C
30 C30    -3.6287     0.0063    -1.9333 C
31 C31     4.2020     0.4635     1.6304 C
32 C32     3.7681    -0.4639    -1.3631 C
33 C33     5.8001     1.6415    -0.5694 C
34 C34    -4.0092    -0.4658     2.1505 C
35 C35    -5.6006    -1.5871     0.6783 C
36 C36    -5.7906     2.7673    -1.5845 C
37 C37    -7.1044     1.3816    -0.0662 C
38 C38    -3.1795     0.7841    -2.9348 C
39 C39    -3.6044    -1.4674    -2.1023 C
40 C40     3.4889     1.1382     2.5520 C
41 C41     5.1576    -0.5762     2.0880 C
42 C42     4.4453    -1.6229    -1.3029 C
43 C43     2.8249    -0.2427    -2.4900 C
44 C44     6.3136     2.6093     0.2086 C
45 C45     6.5760     1.1556    -1.7369 C
46 C46    -4.3374    -1.4627     3.1901 C
47 C47    -5.2290    -2.4276     2.9375 C
48 C48    -5.8886    -2.4948     1.6188 C
49 C49    -7.0198     3.5316    -1.8808 C
50 C50    -8.1733     3.2017    -1.2905 C
51 C51    -8.2156     2.0790    -0.3337 C
52 C52    -2.6707     0.1798    -4.1832 C
53 C53    -2.6578    -1.1492    -4.3279 C
54 C54    -3.1466    -2.0124    -3.2362 C
55 C55     3.5772     0.7756     3.9816 C
56 C56     4.3922    -0.2082     4.3747 C
57 C57     5.2330    -0.9055     3.3834 C
58 C58     4.1984    -2.6892    -2.2954 C
59 C59     3.3372    -2.4862    -3.2970 C
60 C60     2.6285    -1.1973    -3.4069 C
61 C61     7.6428     3.1797    -0.0927 C
62 C62     8.3402     2.7352    -1.1446 C
63 C63     7.7800     1.6752    -2.0071 C
64 C64    -0.2224    -6.0681    -3.8825 C
65 C65    -0.0939    -5.8297    -2.5156 C
66 C66     0.0825    -4.5218    -2.0359 C
67 C67     0.1029    -3.4492    -2.9422 C
68 C68    -0.0267    -3.6963    -4.3061 C
69 C69    -0.1871    -5.0006    -4.7807 C
70 C70     0.2656    -4.3516    -0.5733 C
71 N71     1.1308    -3.4315    -0.0722 N
72 S72     2.1030    -3.8023     1.3031 S
73 O73     2.0769    -5.2567     1.4178 O
74 O74     3.3306    -3.0421     1.0985 O
75 C75     1.2882    -3.0724     2.7575 C
76 C76     1.3145    -1.6893     2.9050 C
77 C77     0.6950    -1.1662     4.0392 C
78 C78     0.1260    -2.0429     4.9598 C
79 C79     0.1775    -3.4162     4.7027 C
80 N80     0.7386    -3.9330     3.6036 N
81 N81    -1.6903    -3.0171     1.1389 N
82 C82    -2.2708    -3.8274     2.0342 C
83 C83    -2.7235    -4.9955     1.3939 C
84 C84    -2.3968    -4.8612     0.0498 C
85 C85    -1.6851    -3.6358    -0.1049 C
86 H86     0.6465     5.0854     1.6522 H
87 H87    -0.1973     6.6430     3.2773 H
88 H88    -4.1277     4.8968     3.0666 H
89 H89    -4.5315     2.9313     1.5165 H
90 H90    -2.6419     6.5604     3.9969 H
91 H91    -1.1064     5.2729    -1.1007 H
92 H92     4.2218     3.5972    -1.5207 H
93 H93     3.6983     5.7792    -2.5267 H
94 H94    -0.3565     7.1940    -2.2963 H
95 H95     2.0544     7.4634    -3.0063 H
96 H96     1.0897    -2.4358    -0.4181 H
97 H97    -3.2865     0.3022     2.3873 H
98 H98    -6.1032    -1.6340    -0.2797 H
99 H99    -4.8676     3.0809    -2.0485 H
100 H100    -7.1545     0.5836     0.6590 H
101 H101    -3.1455     1.8591    -2.8342 H
102 H102    -3.9383    -2.1200    -1.3114 H
103 H103     2.8469     1.9618     2.2771 H
104 H104     5.8318    -1.0501     1.3928 H
105 H105     5.1953    -1.7952    -0.5511 H
106 H106     2.2971     0.6953    -2.5934 H
107 H107     5.7630     2.9851     1.0624 H
108 H108     6.1757     0.3881    -2.3849 H
109 H109    -3.8482    -1.4143     4.1544 H
110 H110    -5.4649    -3.1623     3.6963 H
111 H111    -6.6112    -3.2749     1.4179 H
112 H112    -6.9830     4.3612    -2.5750 H
113 H113    -9.0743     3.7619    -1.5047 H
114 H114    -9.1458     1.8292     0.1601 H
115 H115    -2.3065     0.8162    -4.9793 H
116 H116    -2.2863    -1.5937    -5.2419 H
117 H117    -3.1221    -3.0887    -3.3504 H
118 H118     2.9731     1.3032     4.7083 H
119 H119     4.4536    -0.4791     5.4206 H
120 H120     5.9334    -1.6627     3.7115 H
121 H121     4.7251    -3.6312    -2.2149 H
122 H122     3.1589    -3.2641    -4.0282 H
123 H123     1.9422    -1.0295    -4.2269 H
124 H124     8.0502     3.9578     0.5398 H
125 H125     9.3140     3.1521    -1.3670 H
126 H126     8.3445     1.3228    -2.8607 H
127 H127    -0.3443    -7.0846    -4.2438 H
128 H128    -0.1100    -6.6619    -1.8166 H
129 H129     0.2088    -2.4329    -2.5739 H
130 H130    -0.0006    -2.8638    -5.0022 H
131 H131    -0.2858    -5.1838    -5.8465 H
132 H132     0.2718    -5.2794    -0.0084 H
133 H133     1.7773    -1.0500     2.1664 H
134 H134     0.6527    -0.0926     4.1837 H
135 H135    -0.3567    -1.6760     5.8598 H
136 H136    -0.2528    -4.1303     5.4014 H
137 H137    -1.3496    -2.0237     1.2758 H
138 H138    -2.3184    -3.5613     3.0803 H
139 H139    -3.2040    -5.8337     1.8771 H
140 H140    -2.5820    -5.5697    -0.7455 H
141 H141    -1.6377    -2.9981    -0.9716 H
@<TRIPOS>BOND
1 1 2 1
2 1 3 2
3 1 86 1
4 2 4 2
5 2 5 1
6 3 8 1
7 3 87 1
8 4 6 1
9 4 7 1
10 5 9 2
11 5 10 1
12 6 8 2
13 6 88 1
14 7 11 2
15 7 89 1
16 8 90 1
17 9 11 1
18 9 12 1
19 10 14 2
20 10 15 1
21 11 13 1
22 12 25 1
23 13 28 1
24 13 29 1
25 13 30 1
26 14 16 1
27 14 17 1
28 15 20 2
29 15 22 1
30 16 18 2
31 16 19 1
32 17 23 2
33 17 91 1
34 18 20 1
35 18 92 1
36 19 24 2
37 19 93 1
38 20 21 1
39 21 31 1
40 21 32 1
41 21 33 1
42 22 25 1
43 23 24 1
44 23 94 1
45 24 95 1
46 25 26 2
47 25 27 2
48 28 34 2
49 28 35 1
50 29 36 2
51 29 37 1
52 30 38 2
53 30 39 1
54 31 40 2
55 31 41 1
56 32 42 2
57 32 43 1
58 33 44 2
59 33 45 1
60 34 46 1
61 34 97 1
62 35 48 2
63 35 98 1
64 36 49 1
65 36 99 1
66 37 51 2
67 37 100 1
68 38 52 1
69 38 101 1
70 39 54 2
71 39 102 1
72 40 55 1
73 40 103 1
74 41 57 2
75 41 104 1
76 42 58 1
77 42 105 1
78 43 60 2
79 43 106 1
80 44 61 1
81 44 107 1
82 45 63 2
83 45 108 1
84 46 47 2
85 46 109 1
86 47 48 1
87 47 110 1
88 48 111 1
89 49 50 2
90 49 112 1
91 50 51 1
92 50 113 1
93 51 114 1
94 52 53 2
95 52 115 1
96 53 54 1
97 53 116 1
98 54 117 1
99 55 56 2
100 55 118 1
101 56 57 1
102 56 119 1
103 57 120 1
104 58 59 2
105 58 121 1
106 59 60 1
107 59 122 1
108 60 123 1
109 61 62 2
110 61 124 1
111 62 63 1
112 62 125 1
113 63 126 1
114 64 65 Ar
115 64 69 Ar
116 64 127 1
117 65 66 Ar
118 65 128 1
119 66 67 Ar
120 66 70 1
121 67 68 Ar
122 67 129 1
123 68 69 Ar
124 68 130 1
125 69 131 1
126 70 71 Ar
127 70 132 1
128 71 72 1
129 71 96 1
130 72 73 2
131 72 74 2
132 72 75 1
133 75 76 Ar
134 75 80 Ar
135 76 77 Ar
136 76 133 1
137 77 78 Ar
138 77 134 1
139 78 79 Ar
140 78 135 1
141 79 80 Ar
142 79 136 1
143 81 82 Ar
144 81 85 1
145 81 137 1
146 82 83 Ar
147 82 138 1
148 83 84 Ar
149 83 139 1
150 84 85 Ar
151 84 140 1
152 85 141 1
