# Title Card Required
# Created by GaussView 5.0.9
#

#
#

@<TRIPOS>MOLECULE
Molecule Name
141 152
SMALL
NO_CHARGES


@<TRIPOS>ATOM
1 C1     0.0414     5.4641    -0.8351 C
2 C2     1.0379     4.3898    -0.5695 C
3 C3     0.4095     6.5886    -1.4600 C
4 C4     2.3056     4.5500    -1.0077 C
5 C5     0.6548     3.1218     0.1214 C
6 C6     2.7044     5.8015    -1.6927 C
7 C7     3.2965     3.4763    -0.8096 C
8 C8     1.8051     6.7687    -1.9023 C
9 C9     1.5254     2.0926     0.1608 C
10 C10    -0.6799     2.9701     0.7481 C
11 C11     2.9430     2.3127    -0.2424 C
12 O12     1.1428     0.8946     0.7100 O
13 Si13     4.2595     1.0173     0.0280 Si
14 C14    -1.1038     3.7915     1.7365 C
15 C15    -1.6035     1.9388     0.1968 C
16 C16    -2.5281     3.7638     2.1485 C
17 C17    -0.2095     4.7533     2.4301 C
18 C18    -3.3917     2.9540     1.5254 C
19 C19    -2.9776     4.6848     3.2113 C
20 C20    -2.9248     2.0260     0.4700 C
21 Si21    -4.2168     0.9977    -0.4024 Si
22 O22    -1.1282     1.0004    -0.6914 O
23 C23    -0.6877     5.5593     3.3854 C
24 C24    -2.1108     5.5256     3.7863 C
25 P25     0.0752     0.0273    -0.1687 P
26 O26     0.6368    -0.7072    -1.3291 O
27 O27    -0.4847    -0.8508     1.0259 O
28 C28     4.3826    -0.0509    -1.4941 C
29 C29     5.8711     1.9146     0.3005 C
30 C30     3.9077     0.0218     1.5653 C
31 C31    -3.7381     0.7573    -2.1946 C
32 C32    -4.4426    -0.5968     0.5366 C
33 C33    -5.8008     1.9766    -0.3884 C
34 C34     3.5036     0.0837    -2.5024 C
35 C35     5.5091    -1.0060    -1.6370 C
36 C36     6.0703     2.6152     1.4302 C
37 C37     6.9232     1.9158    -0.7472 C
38 C38     3.3937     0.6213     2.6542 C
39 C39     4.2377    -1.4224     1.6247 C
40 C40    -3.0768     1.7313    -2.8465 C
41 C41    -4.1036    -0.4789    -2.9304 C
42 C42    -5.3930    -1.4782     0.1803 C
43 C43    -3.5984    -0.8835     1.7233 C
44 C44    -5.8855     3.1232    -1.0845 C
45 C45    -6.9608     1.5345     0.4256 C
46 C46     3.6556    -0.7149    -3.7361 C
47 C47     4.6859    -1.5581    -3.8665 C
48 C48     5.6570    -1.7119    -2.7646 C
49 C49     7.3390     3.3416     1.6448 C
50 C50     8.2912     3.3203     0.7056 C
51 C51     8.0699     2.5784    -0.5512 C
52 C52     3.1365    -0.1551     3.8846 C
53 C53     3.4384    -1.4569     3.9302 C
54 C54     4.0211    -2.1191     2.7478 C
55 C55    -2.6694     1.5485    -4.2546 C
56 C56    -2.9743     0.4172    -4.8988 C
57 C57    -3.7320    -0.6425    -4.2061 C
58 C58    -5.5567    -2.7424     0.9281 C
59 C59    -4.7754    -3.0043     1.9820 C
60 C60    -3.7574    -2.0236     2.4060 C
61 C61    -7.1313     3.9174    -1.0656 C
62 C62    -8.1785     3.5050    -0.3427 C
63 C63    -8.0869     2.2585     0.4431 C
64 C64    -0.3665    -5.5703     4.9050 C
65 C65    -0.8757    -5.5448     3.6098 C
66 C66    -0.8092    -4.3701     2.8400 C
67 C67    -0.2380    -3.2093     3.3979 C
68 C68     0.2587    -3.2385     4.6954 C
69 C69     0.2007    -4.4162     5.4483 C
70 C70    -1.3705    -4.4147     1.4941 C
71 N71    -1.2804    -3.4553     0.6371 N
72 S72    -2.1663    -3.6865    -0.8377 S
73 O73    -3.0839    -4.8211    -0.6919 O
74 O74    -2.6495    -2.3442    -1.1555 O
75 C75    -0.8966    -4.1021    -2.0590 C
76 C76    -0.6164    -3.1780    -3.0611 C
77 C77     0.2907    -3.5844    -4.0419 C
78 C78     0.8620    -4.8505    -3.9479 C
79 C79     0.5163    -5.6733    -2.8705 C
80 N80    -0.3664    -5.3120    -1.9358 N
81 N81     2.3426    -3.1329    -0.8366 N
82 C82     3.2343    -3.8979    -1.5449 C
83 C83     3.6646    -4.9257    -0.7307 C
84 C84     3.0019    -4.7755     0.5199 C
85 C85     2.1929    -3.6625     0.4194 C
86 H86    -0.9928     5.3452    -0.5412 H
87 H87    -0.3187     7.3661    -1.6518 H
88 H88     3.7252     5.9370    -2.0279 H
89 H89     4.3159     3.6457    -1.1338 H
90 H90     2.0966     7.6822    -2.4044 H
91 H91     0.8448     4.8037     2.1900 H
92 H92    -4.4363     2.9592     1.8124 H
93 H93    -4.0134     4.6888     3.5293 H
94 H94    -0.0191     6.2493     3.8841 H
95 H95    -2.4539     6.1965     4.5633 H
96 H96    -0.7942    -1.7675     0.7674 H
97 H97     2.6823     0.7844    -2.4409 H
98 H98     6.2354    -1.1149    -0.8415 H
99 H99     5.3114     2.6627     2.1984 H
100 H100     6.7672     1.4058    -1.6871 H
101 H101     3.1499     1.6760     2.6459 H
102 H102     4.6544    -1.9286     0.7677 H
103 H103    -2.8134     2.6558    -2.3489 H
104 H104    -4.6682    -1.2621    -2.4513 H
105 H105    -6.0619    -1.2714    -0.6446 H
106 H106    -2.8552    -0.1722     2.0553 H
107 H107    -5.0476     3.4858    -1.6645 H
108 H108    -6.9044     0.6389     1.0277 H
109 H109     2.9369    -0.6075    -4.5381 H
110 H110     4.8020    -2.1391    -4.7722 H
111 H111     6.4863    -2.3992    -2.8705 H
112 H112     7.4951     3.8913     2.5640 H
113 H113     9.2205     3.8529     0.8608 H
114 H114     8.8329     2.5826    -1.3190 H
115 H115     2.7081     0.3338     4.7498 H
116 H116     3.2576    -2.0269     4.8322 H
117 H117     4.2656    -3.1725     2.7896 H
118 H118    -2.1189     2.3307    -4.7611 H
119 H119    -2.6736     0.2794    -5.9294 H
120 H120    -3.9922    -1.5502    -4.7353 H
121 H121    -6.3095    -3.4560     0.6197 H
122 H122    -4.8910    -3.9311     2.5288 H
123 H123    -3.1406    -2.2292     3.2711 H
124 H124    -7.1932     4.8342    -1.6375 H
125 H125    -9.0913     4.0864    -0.3266 H
126 H126    -8.9298     1.9374     1.0413 H
127 H127    -0.4155    -6.4833     5.4898 H
128 H128    -1.3239    -6.4374     3.1823 H
129 H129    -0.2014    -2.2894     2.8264 H
130 H130     0.6881    -2.3394     5.1254 H
131 H131     0.5933    -4.4307     6.4607 H
132 H132    -1.9173    -5.3234     1.2237 H
133 H133    -1.0761    -2.1985    -3.0578 H
134 H134     0.5493    -2.9149    -4.8564 H
135 H135     1.5752    -5.1999    -4.6872 H
136 H136     0.9640    -6.6565    -2.7555 H
137 H137     1.8641    -2.2957    -1.1619 H
138 H138     3.4729    -3.6709    -2.5711 H
139 H139     4.3724    -5.6961    -1.0044 H
140 H140     3.1090    -5.4036     1.3933 H
141 H141     1.5487    -3.1896     1.1430 H
@<TRIPOS>BOND
1 1 2 1
2 1 3 2
3 1 86 1
4 2 4 2
5 2 5 1
6 3 8 1
7 3 87 1
8 4 6 1
9 4 7 1
10 5 9 2
11 5 10 1
12 6 8 2
13 6 88 1
14 7 11 2
15 7 89 1
16 8 90 1
17 9 11 1
18 9 12 1
19 10 14 2
20 10 15 1
21 11 13 1
22 12 25 1
23 13 28 1
24 13 29 1
25 13 30 1
26 14 16 1
27 14 17 1
28 15 20 2
29 15 22 1
30 16 18 2
31 16 19 1
32 17 23 2
33 17 91 1
34 18 20 1
35 18 92 1
36 19 24 2
37 19 93 1
38 20 21 1
39 21 31 1
40 21 32 1
41 21 33 1
42 22 25 1
43 23 24 1
44 23 94 1
45 24 95 1
46 25 26 2
47 25 27 Ar
48 27 96 1
49 28 34 2
50 28 35 1
51 29 36 2
52 29 37 1
53 30 38 2
54 30 39 1
55 31 40 2
56 31 41 1
57 32 42 2
58 32 43 1
59 33 44 2
60 33 45 1
61 34 46 1
62 34 97 1
63 35 48 2
64 35 98 1
65 36 49 1
66 36 99 1
67 37 51 2
68 37 100 1
69 38 52 1
70 38 101 1
71 39 54 2
72 39 102 1
73 40 55 1
74 40 103 1
75 41 57 2
76 41 104 1
77 42 58 1
78 42 105 1
79 43 60 2
80 43 106 1
81 44 61 1
82 44 107 1
83 45 63 2
84 45 108 1
85 46 47 2
86 46 109 1
87 47 48 1
88 47 110 1
89 48 111 1
90 49 50 2
91 49 112 1
92 50 51 1
93 50 113 1
94 51 114 1
95 52 53 2
96 52 115 1
97 53 54 1
98 53 116 1
99 54 117 1
100 55 56 2
101 55 118 1
102 56 57 1
103 56 119 1
104 57 120 1
105 58 59 2
106 58 121 1
107 59 60 1
108 59 122 1
109 60 123 1
110 61 62 2
111 61 124 1
112 62 63 1
113 62 125 1
114 63 126 1
115 64 65 Ar
116 64 69 Ar
117 64 127 1
118 65 66 Ar
119 65 128 1
120 66 67 Ar
121 66 70 1
122 67 68 Ar
123 67 129 1
124 68 69 Ar
125 68 130 1
126 69 131 1
127 70 71 2
128 70 132 1
129 71 72 1
130 72 73 2
131 72 74 2
132 72 75 1
133 75 76 Ar
134 75 80 Ar
135 76 77 Ar
136 76 133 1
137 77 78 Ar
138 77 134 1
139 78 79 Ar
140 78 135 1
141 79 80 Ar
142 79 136 1
143 81 82 Ar
144 81 85 Ar
145 81 137 1
146 82 83 2
147 82 138 1
148 83 84 Ar
149 83 139 1
150 84 85 2
151 84 140 1
152 85 141 1
