# Title Card Required
# Created by GaussView 5.0.9
#

#
#

@<TRIPOS>MOLECULE
Molecule Name
141 150
SMALL
NO_CHARGES


@<TRIPOS>ATOM
1 C1    -0.1807    -5.3674    -0.7137 C
2 C2    -1.1394    -4.2392    -0.5431 C
3 C3    -0.6039    -6.5544    -1.1632 C
4 C4    -2.4284    -4.4203    -0.9005 C
5 C5    -0.6991    -2.9068    -0.0268 C
6 C6    -2.8889    -5.7408    -1.3905 C
7 C7    -3.3794    -3.2986    -0.8279 C
8 C8    -2.0236    -6.7530    -1.5086 C
9 C9    -1.5397    -1.8441    -0.1079 C
10 C10     0.6736    -2.7326     0.5135 C
11 C11    -2.9686    -2.0694    -0.4822 C
12 O12    -1.1546    -0.6088     0.3607 O
13 Si13    -4.2144    -0.6781    -0.4026 Si
14 C14     1.1557    -3.4533     1.5519 C
15 C15     1.5624    -1.7772    -0.1899 C
16 C16     2.5984    -3.3645     1.8957 C
17 C17     0.3067    -4.3429     2.3830 C
18 C18     3.4183    -2.5880     1.1744 C
19 C19     3.1089    -4.1736     3.0198 C
20 C20     2.8885    -1.7746     0.0568 C
21 Si21     4.0772    -0.7465    -0.9467 Si
22 O22     1.0083    -0.9345    -1.1165 O
23 C23     0.8403    -5.0451     3.3896 C
24 C24     2.2810    -4.9620     3.7142 C
25 P25     0.0421     0.1918    -0.4497 P
26 O26    -0.5094     1.0141    -1.5716 O
27 O27     0.7923     0.9196     0.6397 O
28 C28    -3.9510     0.5286    -1.7921 C
29 C29    -5.9456    -1.3128    -0.6548 C
30 C30    -4.0764     0.0781     1.2904 C
31 C31     4.1991     0.9589    -0.2104 C
32 C32     5.7538    -1.5614    -0.9213 C
33 C33     3.4535    -0.6672    -2.7028 C
34 C34    -3.0457     0.2837    -2.7537 C
35 C35    -4.8415     1.7080    -1.9176 C
36 C36    -6.8557    -1.2876     0.3340 C
37 C37    -6.3396    -1.8138    -1.9944 C
38 C38    -4.0704     1.4076     1.4750 C
39 C39    -4.0188    -0.8214     2.4684 C
40 C40     4.7491     1.9647    -0.9119 C
41 C41     3.7344     1.2077     1.1755 C
42 C42     6.8724    -0.8511    -0.6938 C
43 C43     5.8552    -3.0285    -1.1223 C
44 C44     3.6066    -1.7082    -3.5386 C
45 C45     2.7034     0.5248    -3.1648 C
46 C46    -2.8845     1.2241    -3.8821 C
47 C47    -3.6693     2.3038    -3.9724 C
48 C48    -4.7006     2.5535    -2.9457 C
49 C49    -8.2293    -1.7769     0.0920 C
50 C50    -8.5757    -2.2365    -1.1161 C
51 C51    -7.5850    -2.2537    -2.2109 C
52 C52    -4.0439     1.9674     2.8422 C
53 C53    -3.9969     1.1518     3.9019 C
54 C54    -3.9778    -0.3115     3.7053 C
55 C55     4.8553     3.3144    -0.3204 C
56 C56     4.4146     3.5379     0.9228 C
57 C57     3.8355     2.4313     1.7097 C
58 C58     8.1891    -1.5220    -0.6693 C
59 C59     8.2735    -2.8430    -0.8633 C
60 C60     7.0488    -3.6335    -1.0962 C
61 C61     3.0690    -1.6460    -4.9142 C
62 C62     2.4070    -0.5593    -5.3278 C
63 C63     2.2079     0.5764    -4.4066 C
64 C64     1.5102     6.5898    -1.7050 C
65 C65     0.8595     6.1276    -0.5664 C
66 C66     0.8826     4.7691    -0.2402 C
67 C67     1.5293     3.8607    -1.0861 C
68 C68     2.1695     4.3267    -2.2277 C
69 C69     2.1675     5.6873    -2.5339 C
70 C70     0.2004     4.3437     0.9919 C
71 N71     0.6097     3.2273     1.6535 N
72 S72     0.1465     3.1371     3.2766 S
73 O73     0.9970     4.0103     4.0564 O
74 O74    -1.3033     3.3250     3.3314 O
75 C75     0.4933     1.4094     3.6224 C
76 C76    -0.4411     0.4646     3.2220 C
77 C77    -0.1568    -0.8594     3.5267 C
78 C78     1.0241    -1.1504     4.2002 C
79 C79     1.8909    -0.1095     4.5267 C
80 N80     1.6318     1.1675     4.2444 N
81 N81    -1.5091     3.3515    -0.9282 N
82 C82    -1.7284     4.2681    -1.8629 C
83 C83    -2.2080     5.4547    -1.2661 C
84 C84    -2.2476     5.2161     0.0936 C
85 C85    -1.7139     3.9175     0.3254 C
86 H86     0.8705    -5.2404    -0.4936 H
87 H87     0.0972    -7.3698    -1.2856 H
88 H88    -3.9277    -5.8904    -1.6574 H
89 H89    -4.4130    -3.4910    -1.0756 H
90 H90    -2.3602    -7.7167    -1.8683 H
91 H91    -0.7578    -4.4203     2.2036 H
92 H92     4.4710    -2.5347     1.4240 H
93 H93     4.1577    -4.1352     3.2887 H
94 H94     0.2042    -5.6834     3.9893 H
95 H95     2.6687    -5.5491     4.5367 H
96 H96     0.7474     2.2573     1.1495 H
97 H97    -2.4205    -0.5986    -2.7219 H
98 H98    -5.6199     1.8840    -1.1860 H
99 H99    -6.6080    -0.9111     1.3163 H
100 H100    -5.6196    -1.8272    -2.8034 H
101 H101    -4.1018     2.0903     0.6406 H
102 H102    -4.0100    -1.8957     2.3330 H
103 H103     5.1162     1.8030    -1.9177 H
104 H104     3.3137     0.4041     1.7655 H
105 H105     6.8370     0.2159    -0.5291 H
106 H106     4.9625    -3.6226    -1.2704 H
107 H107     4.1167    -2.6065    -3.2260 H
108 H108     2.5170     1.3413    -2.4868 H
109 H109    -2.1298     1.0363    -4.6348 H
110 H110    -3.5520     2.9941    -4.7976 H
111 H111    -5.3489     3.4156    -3.0332 H
112 H112    -8.9550    -1.7604     0.8949 H
113 H113    -9.5817    -2.5937    -1.2943 H
114 H114    -7.8694    -2.6208    -3.1885 H
115 H115    -4.0612     3.0403     2.9830 H
116 H116    -3.9710     1.5617     4.9031 H
117 H117    -3.9326    -0.9695     4.5632 H
118 H118     5.2808     4.1236    -0.8995 H
119 H119     4.4827     4.5279     1.3546 H
120 H120     3.4951     2.6140     2.7200 H
121 H121     9.0852    -0.9409    -0.4939 H
122 H122     9.2372    -3.3353    -0.8445 H
123 H123     7.1183    -4.7044    -1.2370 H
124 H124     3.2093    -2.4840    -5.5846 H
125 H125     2.0091    -0.5141    -6.3333 H
126 H126     1.6480     1.4437    -4.7323 H
127 H127     1.5026     7.6485    -1.9414 H
128 H128     0.3361     6.8234     0.0840 H
129 H129     1.5260     2.8016    -0.8412 H
130 H130     2.6813     3.6343    -2.8855 H
131 H131     2.6779     6.0403    -3.4244 H
132 H132    -0.0887     5.1622     1.6503 H
133 H133    -1.3273     0.7493     2.6713 H
134 H134    -0.8471    -1.6427     3.2333 H
135 H135     1.2806    -2.1681     4.4704 H
136 H136     2.8298    -0.3055     5.0366 H
137 H137    -1.1239     2.3798    -1.1410 H
138 H138    -1.5234     4.0553    -2.9032 H
139 H139    -2.4686     6.3617    -1.7905 H
140 H140    -2.5620     5.8936     0.8762 H
141 H141    -1.9265     3.2935     1.1826 H
@<TRIPOS>BOND
1 1 2 1
2 1 3 2
3 1 86 1
4 2 4 2
5 2 5 1
6 3 8 1
7 3 87 1
8 4 6 1
9 4 7 1
10 5 9 2
11 5 10 1
12 6 8 2
13 6 88 1
14 7 11 2
15 7 89 1
16 8 90 1
17 9 11 1
18 9 12 1
19 10 14 2
20 10 15 1
21 11 13 1
22 12 25 1
23 13 28 1
24 13 29 1
25 13 30 1
26 14 16 1
27 14 17 1
28 15 20 2
29 15 22 1
30 16 18 2
31 16 19 1
32 17 23 2
33 17 91 1
34 18 20 1
35 18 92 1
36 19 24 2
37 19 93 1
38 20 21 1
39 21 31 1
40 21 32 1
41 21 33 1
42 22 25 1
43 23 24 1
44 23 94 1
45 24 95 1
46 25 26 2
47 25 27 2
48 28 34 2
49 28 35 1
50 29 36 2
51 29 37 1
52 30 38 2
53 30 39 1
54 31 40 2
55 31 41 1
56 32 42 2
57 32 43 1
58 33 44 2
59 33 45 1
60 34 46 1
61 34 97 1
62 35 48 2
63 35 98 1
64 36 49 1
65 36 99 1
66 37 51 2
67 37 100 1
68 38 52 1
69 38 101 1
70 39 54 2
71 39 102 1
72 40 55 1
73 40 103 1
74 41 57 2
75 41 104 1
76 42 58 1
77 42 105 1
78 43 60 2
79 43 106 1
80 44 61 1
81 44 107 1
82 45 63 2
83 45 108 1
84 46 47 2
85 46 109 1
86 47 48 1
87 47 110 1
88 48 111 1
89 49 50 2
90 49 112 1
91 50 51 1
92 50 113 1
93 51 114 1
94 52 53 2
95 52 115 1
96 53 54 1
97 53 116 1
98 54 117 1
99 55 56 2
100 55 118 1
101 56 57 1
102 56 119 1
103 57 120 1
104 58 59 2
105 58 121 1
106 59 60 1
107 59 122 1
108 60 123 1
109 61 62 2
110 61 124 1
111 62 63 1
112 62 125 1
113 63 126 1
114 64 65 Ar
115 64 69 Ar
116 64 127 1
117 65 66 Ar
118 65 128 1
119 66 67 Ar
120 66 70 1
121 67 68 Ar
122 67 129 1
123 68 69 Ar
124 68 130 1
125 69 131 1
126 70 71 Ar
127 70 132 1
128 71 72 1
129 72 73 2
130 72 74 2
131 72 75 1
132 75 76 Ar
133 75 80 2
134 76 77 Ar
135 76 133 1
136 77 78 Ar
137 77 134 1
138 78 79 Ar
139 78 135 1
140 79 80 Ar
141 79 136 1
142 81 82 Ar
143 81 85 1
144 82 83 Ar
145 82 138 1
146 83 84 2
147 83 139 1
148 84 85 Ar
149 84 140 1
150 85 141 1
