# Title Card Required
# Created by GaussView 5.0.9
#

#
#

@<TRIPOS>MOLECULE
Molecule Name
141 152
SMALL
NO_CHARGES


@<TRIPOS>ATOM
1 C1    -1.1438    -5.2313    -1.0702 C
2 C2    -1.9021    -4.0369    -0.6010 C
3 C3    -1.7907    -6.3033    -1.5415 C
4 C4    -3.2482    -4.0327    -0.7207 C
5 C5    -1.2097    -2.8360    -0.0361 C
6 C6    -3.9550    -5.2278    -1.2381 C
7 C7    -4.0142    -2.8105    -0.4183 C
8 C8    -3.2630    -6.3063    -1.6187 C
9 C9    -1.9148    -1.6970     0.1732 C
10 C10     0.2554    -2.8568     0.2233 C
11 C11    -3.3868    -1.6825    -0.0576 C
12 O12    -1.3216    -0.6153     0.7814 O
13 Si13    -4.3327    -0.0744     0.0016 Si
14 C14     0.8518    -3.7742     1.0196 C
15 C15     1.0919    -1.8578    -0.4957 C
16 C16     2.3348    -3.8643     1.0480 C
17 C17     0.0924    -4.7259     1.8689 C
18 C18     3.0774    -3.0324     0.3053 C
19 C19     2.9641    -4.9167     1.8699 C
20 C20     2.4341    -1.9830    -0.5159 C
21 Si21     3.5376    -0.8637    -1.5254 Si
22 O22     0.4759    -0.8046    -1.1238 O
23 C23     0.7325    -5.6554     2.5882 C
24 C24     2.2080    -5.7592     2.5824 C
25 P25    -0.2450     0.2373    -0.1062 P
26 O26    -0.8135     1.3859    -0.8410 O
27 O27     0.8650     0.5450     0.9744 O
28 C28    -3.9940     0.8994    -1.5464 C
29 C29    -6.1738    -0.3552    -0.0034 C
30 C30    -3.8090     0.8432     1.5300 C
31 C31     4.3862     0.3583    -0.4014 C
32 C32     4.7844    -1.9757    -2.3553 C
33 C33     2.5521     0.0289    -2.8375 C
34 C34    -3.1892     0.4204    -2.5112 C
35 C35    -4.7073     2.1809    -1.7629 C
36 C36    -6.9393    -0.0345     1.0539 C
37 C37    -6.8169    -0.8841    -1.2317 C
38 C38    -3.2846     2.0778     1.4598 C
39 C39    -3.9469     0.1827     2.8498 C
40 C40     5.2014     1.2986    -0.9103 C
41 C41     4.1821     0.2931     1.0662 C
42 C42     6.1036    -1.7189    -2.3074 C
43 C43     4.3129    -3.2084    -3.0348 C
44 C44     1.9154    -0.6668    -3.7962 C
45 C45     2.4052     1.5060    -2.8000 C
46 C46    -3.0031     1.1756    -3.7673 C
47 C47    -3.6593     2.3254    -3.9616 C
48 C48    -4.5497     2.8546    -2.9088 C
49 C49    -8.4017    -0.2436     1.0044 C
50 C50    -8.9728    -0.7367    -0.1007 C
51 C51    -8.1418    -1.0683    -1.2750 C
52 C52    -2.8906     2.7880     2.6937 C
53 C53    -3.0534     2.2017     3.8856 C
54 C54    -3.5973     0.8313     3.9668 C
55 C55     5.8988     2.2454    -0.0167 C
56 C56     5.7258     2.1676     1.3072 C
57 C57     4.8234     1.1468     1.8741 C
58 C58     7.0655    -2.6291    -2.9639 C
59 C59     6.6301    -3.7257    -3.5937 C
60 C60     5.1870    -4.0334    -3.6237 C
61 C61     1.0928     0.0300    -4.8064 C
62 C62     0.9773     1.3615    -4.7737 C
63 C63     1.6692     2.1344    -3.7249 C
64 C64     3.9704     5.5459    -0.3581 C
65 C65     3.7527     4.8889     0.8476 C
66 C66     2.5820     4.1323     1.0424 C
67 C67     1.6131     4.0754     0.0230 C
68 C68     1.8139     4.7723    -1.1626 C
69 C69     2.9970     5.4922    -1.3587 C
70 C70     2.3973     3.4899     2.3334 C
71 N71     1.4861     2.6065     2.5795 N
72 S72     1.3400     2.1677     4.2559 S
73 O73     2.4967     2.6572     5.0098 O
74 O74    -0.0223     2.5411     4.6420 O
75 C75     1.3890     0.3530     4.1721 C
76 C76     0.1825    -0.3429     4.1484 C
77 C77     0.2608    -1.7347     4.1573 C
78 C78     1.5172    -2.3365     4.1920 C
79 C79     2.6550    -1.5272     4.1873 C
80 N80     2.5966    -0.1918     4.1808 N
81 N81    -1.5293     3.9670    -1.8914 N
82 C82    -1.2701     4.4369    -3.1555 C
83 C83    -1.5760     5.7835    -3.1836 C
84 C84    -2.0340     6.1380    -1.8831 C
85 C85    -1.9935     4.9948    -1.1106 C
86 H86    -0.0627    -5.2436    -1.0557 H
87 H87    -1.2340    -7.1672    -1.8813 H
88 H88    -5.0353    -5.2304    -1.3148 H
89 H89    -5.0819    -2.8243    -0.5788 H
90 H90    -3.7802    -7.1777    -1.9990 H
91 H91    -0.9867    -4.6735     1.9321 H
92 H92     4.1580    -3.1139     0.3145 H
93 H93     4.0426    -5.0167     1.8976 H
94 H94     0.1615    -6.3400     3.2022 H
95 H95     2.6828    -6.5268     3.1797 H
96 H96     0.8989     1.4263     1.4456 H
97 H97    -2.6750    -0.5239    -2.3967 H
98 H98    -5.3648     2.5731    -0.9971 H
99 H99    -6.5105     0.3849     1.9520 H
100 H100    -6.2163    -1.1218    -2.1011 H
101 H101    -3.1455     2.5725     0.5101 H
102 H102    -4.3380    -0.8250     2.9153 H
103 H103     5.3647     1.3707    -1.9785 H
104 H104     3.5198    -0.4448     1.4958 H
105 H105     6.4919    -0.8539    -1.7930 H
106 H106     3.2627    -3.4671    -3.0333 H
107 H107     1.9682    -1.7444    -3.8319 H
108 H108     2.8754     2.0887    -2.0219 H
109 H109    -2.3416     0.7914    -4.5330 H
110 H110    -3.5276     2.8774    -4.8832 H
111 H111    -5.0704     3.7904    -3.0651 H
112 H112    -9.0097     0.0057     1.8644 H
113 H113   -10.0438    -0.8887    -0.1382 H
114 H114    -8.6075    -1.4561    -2.1717 H
115 H115    -2.4788     3.7870     2.6310 H
116 H116    -2.7778     2.7251     4.7917 H
117 H117    -3.7040     0.3507     4.9305 H
118 H118     6.5517     2.9998    -0.4359 H
119 H119     6.2365     2.8595     1.9642 H
120 H120     4.6787     1.0980     2.9448 H
121 H121     8.1241    -2.4057    -2.9326 H
122 H122     7.3339    -4.3936    -4.0732 H
123 H123     4.8396    -4.9353    -4.1109 H
124 H124     0.5805    -0.5408    -5.5699 H
125 H125     0.3725     1.8738    -5.5108 H
126 H126     1.5743     3.2109    -3.7050 H
127 H127     4.8834     6.1125    -0.5111 H
128 H128     4.4892     4.9480     1.6442 H
129 H129     0.6951     3.5184     0.1703 H
130 H130     1.0418     4.7672    -1.9243 H
131 H131     3.1508     6.0274    -2.2911 H
132 H132     3.0740     3.7969     3.1378 H
133 H133    -0.7601     0.1876     4.1349 H
134 H134    -0.6439    -2.3344     4.1459 H
135 H135     1.6219    -3.4145     4.2304 H
136 H136     3.6503    -1.9648     4.1946 H
137 H137    -1.3796     3.0120    -1.5762 H
138 H138    -0.9244     3.7734    -3.9340 H
139 H139    -1.4894     6.4350    -4.0421 H
140 H140    -2.3568     7.1152    -1.5518 H
141 H141    -2.2506     4.8351    -0.0741 H
@<TRIPOS>BOND
1 1 2 1
2 1 3 2
3 1 86 1
4 2 4 2
5 2 5 1
6 3 8 1
7 3 87 1
8 4 6 1
9 4 7 1
10 5 9 2
11 5 10 1
12 6 8 2
13 6 88 1
14 7 11 2
15 7 89 1
16 8 90 1
17 9 11 1
18 9 12 1
19 10 14 2
20 10 15 1
21 11 13 1
22 12 25 1
23 13 28 1
24 13 29 1
25 13 30 1
26 14 16 1
27 14 17 1
28 15 20 2
29 15 22 1
30 16 18 2
31 16 19 1
32 17 23 2
33 17 91 1
34 18 20 1
35 18 92 1
36 19 24 2
37 19 93 1
38 20 21 1
39 21 31 1
40 21 32 1
41 21 33 1
42 22 25 1
43 23 24 1
44 23 94 1
45 24 95 1
46 25 26 2
47 25 27 Ar
48 27 96 1
49 28 34 2
50 28 35 1
51 29 36 2
52 29 37 1
53 30 38 2
54 30 39 1
55 31 40 2
56 31 41 1
57 32 42 2
58 32 43 1
59 33 44 2
60 33 45 1
61 34 46 1
62 34 97 1
63 35 48 2
64 35 98 1
65 36 49 1
66 36 99 1
67 37 51 2
68 37 100 1
69 38 52 1
70 38 101 1
71 39 54 2
72 39 102 1
73 40 55 1
74 40 103 1
75 41 57 2
76 41 104 1
77 42 58 1
78 42 105 1
79 43 60 2
80 43 106 1
81 44 61 1
82 44 107 1
83 45 63 2
84 45 108 1
85 46 47 2
86 46 109 1
87 47 48 1
88 47 110 1
89 48 111 1
90 49 50 2
91 49 112 1
92 50 51 1
93 50 113 1
94 51 114 1
95 52 53 2
96 52 115 1
97 53 54 1
98 53 116 1
99 54 117 1
100 55 56 2
101 55 118 1
102 56 57 1
103 56 119 1
104 57 120 1
105 58 59 2
106 58 121 1
107 59 60 1
108 59 122 1
109 60 123 1
110 61 62 2
111 61 124 1
112 62 63 1
113 62 125 1
114 63 126 1
115 64 65 Ar
116 64 69 Ar
117 64 127 1
118 65 66 Ar
119 65 128 1
120 66 67 Ar
121 66 70 1
122 67 68 Ar
123 67 129 1
124 68 69 Ar
125 68 130 1
126 69 131 1
127 70 71 2
128 70 132 1
129 71 72 1
130 72 73 2
131 72 74 2
132 72 75 1
133 75 76 Ar
134 75 80 Ar
135 76 77 Ar
136 76 133 1
137 77 78 Ar
138 77 134 1
139 78 79 Ar
140 78 135 1
141 79 80 Ar
142 79 136 1
143 81 82 Ar
144 81 85 Ar
145 81 137 1
146 82 83 2
147 82 138 1
148 83 84 Ar
149 83 139 1
150 84 85 2
151 84 140 1
152 85 141 1
