# Title Card Required
# Created by GaussView 5.0.9
#

#
#

@<TRIPOS>MOLECULE
Molecule Name
141 152
SMALL
NO_CHARGES


@<TRIPOS>ATOM
1 C1    -0.8727     5.1229     1.6387 C
2 C2    -1.6989     4.0099     1.0949 C
3 C3    -1.3989     5.9940     2.5074 C
4 C4    -2.9715     3.8670     1.5276 C
5 C5    -1.1367     3.0199     0.1270 C
6 C6    -3.5462     4.8409     2.4845 C
7 C7    -3.7908     2.7346     1.0549 C
8 C8    -2.8006     5.8512     2.9443 C
9 C9    -1.8493     1.9201    -0.1883 C
10 C10     0.2021     3.2161    -0.4849 C
11 C11    -3.2719     1.8088     0.2342 C
12 O12    -1.2817     0.9406    -0.9611 O
13 Si13    -4.3837     0.4311    -0.3601 Si
14 C14     0.4894     4.3092    -1.2311 C
15 C15     1.2657     2.1985    -0.2261 C
16 C16     1.8902     4.5664    -1.6447 C
17 C17    -0.5397     5.2917    -1.6607 C
18 C18     2.8653     3.7272    -1.2792 C
19 C19     2.1883     5.7830    -2.4269 C
20 C20     2.5542     2.4999    -0.5116 C
21 Si21     3.9724     1.3719    -0.0404 Si
22 O22     0.9602     1.0428     0.4573 O
23 C23    -0.1959     6.3713    -2.3729 C
24 C24     1.2070     6.6271    -2.7625 C
25 P25    -0.1501     0.0437    -0.2034 P
26 O26    -0.7859    -0.5531     1.1077 O
27 O27     0.3771    -0.9482    -1.1769 O
28 C28    -4.6394    -0.7839     1.0339 C
29 C29    -6.0104     1.2295    -0.8149 C
30 C30    -3.6881    -0.4145    -1.8758 C
31 C31     3.9328     0.9940     1.7935 C
32 C32     3.8963    -0.1341    -1.1452 C
33 C33     5.5821     2.2545    -0.3283 C
34 C34    -4.0448    -0.6038     2.2269 C
35 C35    -5.5458    -1.9438     0.8448 C
36 C36    -6.0412     2.2358    -1.7065 C
37 C37    -7.2746     0.8148    -0.1542 C
38 C38    -3.3472     0.3062    -2.9595 C
39 C39    -3.4927    -1.8854    -1.9014 C
40 C40     3.0447     1.5940     2.6089 C
41 C41     4.9710     0.1176     2.3920 C
42 C42     4.7387    -1.1674    -0.9745 C
43 C43     2.9770    -0.1443    -2.3114 C
44 C44     5.9082     3.3098     0.4368 C
45 C45     6.5084     1.8179    -1.4019 C
46 C46    -4.3172    -1.5320     3.3439 C
47 C47    -5.1495    -2.5653     3.1703 C
48 C48    -5.7868    -2.7858     1.8569 C
49 C49    -7.3205     2.8839    -2.0618 C
50 C50    -8.4574     2.4866    -1.4810 C
51 C51    -8.4316     1.4072    -0.4752 C
52 C52    -2.7882    -0.3560    -4.1561 C
53 C53    -2.6261    -1.6828    -4.1736 C
54 C54    -3.0023    -2.4844    -2.9944 C
55 C55     3.0357     1.2989     4.0566 C
56 C56     3.9374     0.4594     4.5751 C
57 C57     4.9622    -0.1470     3.7044 C
58 C58     4.6936    -2.3310    -1.8838 C
59 C59     3.8447    -2.3424    -2.9158 C
60 C60     2.9534    -1.1898    -3.1470 C
61 C61     7.1837     4.0226     0.2172 C
62 C62     8.0183     3.6211    -0.7486 C
63 C63     7.6630     2.4666    -1.5984 C
64 C64     1.6906    -6.4400    -3.4495 C
65 C65     1.4036    -6.0278    -2.1470 C
66 C66     0.9320    -4.7348    -1.8982 C
67 C67     0.7569    -3.8543    -2.9754 C
68 C68     1.0425    -4.2672    -4.2760 C
69 C69     1.5066    -5.5618    -4.5176 C
70 C70     0.6214    -4.2987    -0.4687 C
71 N71     1.5826    -3.3142     0.0107 N
72 S72     2.4664    -3.5435     1.3965 S
73 O73     2.7847    -4.9673     1.4787 O
74 O74     3.4925    -2.5001     1.3939 O
75 C75     1.3930    -3.1413     2.8176 C
76 C76     1.3362    -1.8148     3.2447 C
77 C77     0.4987    -1.5219     4.3177 C
78 C78    -0.2229    -2.5590     4.9090 C
79 C79    -0.0815    -3.8491     4.3942 C
80 N80     0.7093    -4.1444     3.3549 N
81 N81    -1.2210    -3.1419     0.8592 N
82 C82    -2.2129    -3.8069     1.3599 C
83 C83    -2.6401    -4.9269     0.5317 C
84 C84    -1.8409    -4.9142    -0.5550 C
85 C85    -0.8632    -3.7894    -0.4029 C
86 H86     0.1642     5.2342     1.3511 H
87 H87    -0.7941     6.8011     2.9003 H
88 H88    -4.5717     4.7371     2.8167 H
89 H89    -4.8211     2.6616     1.3830 H
90 H90    -3.2206     6.5615     3.6448 H
91 H91    -1.5851     5.1419    -1.4240 H
92 H92     3.8851     3.9346    -1.5760 H
93 H93     3.2049     6.0016    -2.7319 H
94 H94    -0.9611     7.0727    -2.6801 H
95 H95     1.4399     7.5153    -3.3357 H
96 H96     1.4986    -2.3553    -0.3333 H
97 H97    -3.3734     0.2252     2.4015 H
98 H98    -6.0261    -2.1078    -0.1118 H
99 H99    -5.1351     2.6071    -2.1617 H
100 H100    -7.2782     0.0487     0.6058 H
101 H101    -3.4370     1.3822    -2.9651 H
102 H102    -3.7295    -2.4888    -1.0391 H
103 H103     2.3312     2.3130     2.2365 H
104 H104     5.7675    -0.2857     1.7873 H
105 H105     5.4739    -1.1666    -0.1884 H
106 H106     2.3236     0.6949    -2.5065 H
107 H107     5.2443     3.6525     1.2211 H
108 H108     6.2574     0.9831    -2.0416 H
109 H109    -3.8397    -1.3744     4.3024 H
110 H110    -5.3478    -3.2471     3.9869 H
111 H111    -6.4513    -3.6284     1.7161 H
112 H112    -7.3340     3.6831    -2.7915 H
113 H113    -9.3952     2.9616    -1.7385 H
114 H114    -9.3500     1.1046     0.0112 H
115 H115    -2.5072     0.2367    -5.0169 H
116 H116    -2.2133    -2.1701    -5.0474 H
117 H117    -2.8616    -3.5573    -3.0102 H
118 H118     2.2926     1.7595     4.6947 H
119 H119     3.9296     0.2384     5.6345 H
120 H120     5.7231    -0.7849     4.1350 H
121 H121     5.3548    -3.1711    -1.7155 H
122 H122     3.8143    -3.1918    -3.5856 H
123 H123     2.2804    -1.1925    -3.9946 H
124 H124     7.4405     4.8698     0.8397 H
125 H125     8.9529     4.1422    -0.9110 H
126 H126     8.3370     2.1500    -2.3838 H
127 H127     2.0605    -7.4456    -3.6272 H
128 H128     1.5611    -6.7089    -1.3149 H
129 H129     0.4305    -2.8334    -2.7968 H
130 H130     0.9093    -3.5722    -5.1001 H
131 H131     1.7294    -5.8813    -5.5315 H
132 H132     0.7146    -5.1653     0.1895 H
133 H133     1.9230    -1.0582     2.7428 H
134 H134     0.4133    -0.5034     4.6835 H
135 H135    -0.8812    -2.3772     5.7526 H
136 H136    -0.6253    -4.6832     4.8332 H
137 H137    -0.9204    -1.5793     1.0661 H
138 H138    -2.6508    -3.5217     2.3102 H
139 H139    -3.4422    -5.6142     0.7672 H
140 H140    -1.8455    -5.6029    -1.3897 H
141 H141    -0.9641    -3.0309    -1.1861 H
@<TRIPOS>BOND
1 1 2 1
2 1 3 2
3 1 86 1
4 2 4 2
5 2 5 1
6 3 8 1
7 3 87 1
8 4 6 1
9 4 7 1
10 5 9 2
11 5 10 1
12 6 8 2
13 6 88 1
14 7 11 2
15 7 89 1
16 8 90 1
17 9 11 1
18 9 12 1
19 10 14 2
20 10 15 1
21 11 13 1
22 12 25 1
23 13 28 1
24 13 29 1
25 13 30 1
26 14 16 1
27 14 17 1
28 15 20 2
29 15 22 1
30 16 18 2
31 16 19 1
32 17 23 2
33 17 91 1
34 18 20 1
35 18 92 1
36 19 24 2
37 19 93 1
38 20 21 1
39 21 31 1
40 21 32 1
41 21 33 1
42 22 25 1
43 23 24 1
44 23 94 1
45 24 95 1
46 25 26 Ar
47 25 27 2
48 28 34 2
49 28 35 1
50 29 36 2
51 29 37 1
52 30 38 2
53 30 39 1
54 31 40 2
55 31 41 1
56 32 42 2
57 32 43 1
58 33 44 2
59 33 45 1
60 34 46 1
61 34 97 1
62 35 48 2
63 35 98 1
64 36 49 1
65 36 99 1
66 37 51 2
67 37 100 1
68 38 52 1
69 38 101 1
70 39 54 2
71 39 102 1
72 40 55 1
73 40 103 1
74 41 57 2
75 41 104 1
76 42 58 1
77 42 105 1
78 43 60 2
79 43 106 1
80 44 61 1
81 44 107 1
82 45 63 2
83 45 108 1
84 46 47 2
85 46 109 1
86 47 48 1
87 47 110 1
88 48 111 1
89 49 50 2
90 49 112 1
91 50 51 1
92 50 113 1
93 51 114 1
94 52 53 2
95 52 115 1
96 53 54 1
97 53 116 1
98 54 117 1
99 55 56 2
100 55 118 1
101 56 57 1
102 56 119 1
103 57 120 1
104 58 59 2
105 58 121 1
106 59 60 1
107 59 122 1
108 60 123 1
109 61 62 2
110 61 124 1
111 62 63 1
112 62 125 1
113 63 126 1
114 64 65 Ar
115 64 69 Ar
116 64 127 1
117 65 66 Ar
118 65 128 1
119 66 67 Ar
120 66 70 1
121 67 68 Ar
122 67 129 1
123 68 69 Ar
124 68 130 1
125 69 131 1
126 70 71 1
127 70 85 1
128 70 132 1
129 71 72 1
130 71 96 1
131 72 73 2
132 72 74 2
133 72 75 1
134 75 76 Ar
135 75 80 Ar
136 76 77 Ar
137 76 133 1
138 77 78 Ar
139 77 134 1
140 78 79 Ar
141 78 135 1
142 79 80 Ar
143 79 136 1
144 81 82 2
145 81 85 1
146 82 83 1
147 82 138 1
148 83 84 2
149 83 139 1
150 84 85 1
151 84 140 1
152 85 141 1
