# Title Card Required
# Created by GaussView 5.0.9
#

#
#

@<TRIPOS>MOLECULE
Molecule Name
148 159
SMALL
NO_CHARGES


@<TRIPOS>ATOM
1 C1    -0.3246    -5.7127    -1.2890 C
2 C2     0.7358    -4.7143    -0.9678 C
3 C3    -0.0284    -7.0145    -1.3741 C
4 C4     1.9852    -5.1571    -0.7075 C
5 C5     0.4380    -3.2476    -0.8890 C
6 C6     2.3045    -6.6002    -0.8117 C
7 C7     3.0290    -4.2132    -0.2776 C
8 C8     1.3502    -7.4784    -1.1347 C
9 C9     1.3736    -2.4038    -0.3730 C
10 C10    -0.8960    -2.7513    -1.3162 C
11 C11     2.7402    -2.9208    -0.0789 C
12 O12     1.1834    -1.0408    -0.2937 O
13 Si13     4.0586    -1.7573     0.5413 Si
14 C14    -1.3959    -2.9485    -2.5568 C
15 C15    -1.7491    -2.1246    -0.2803 C
16 C16    -2.8357    -2.6827    -2.8151 C
17 C17    -0.5750    -3.4459    -3.6874 C
18 C18    -3.6345    -2.2632    -1.8227 C
19 C19    -3.3685    -2.9379    -4.1675 C
20 C20    -3.0729    -1.9761    -0.4838 C
21 Si21    -4.2055    -1.3321     0.8517 Si
22 O22    -1.1475    -1.6071     0.8373 O
23 C23    -1.1279    -3.6492    -4.8890 C
24 C24    -2.5638    -3.3914    -5.1353 C
25 P25    -0.1058    -0.3996     0.4827 P
26 O26     0.2756     0.2857     1.7579 O
27 N27    -0.8834     0.5076    -0.6294 N
28 C28     5.7104    -2.6009     0.6705 C
29 C29     4.1316    -0.3543    -0.6787 C
30 C30     3.6357    -1.1886     2.2617 C
31 C31    -4.4468     0.5060     0.6626 C
32 C32    -5.8393    -2.2123     0.6936 C
33 C33    -3.4509    -1.7438     2.5073 C
34 C34     6.7490    -2.2325    -0.0984 C
35 C35     5.8936    -3.6727     1.6789 C
36 C36     4.0158     0.9239    -0.2867 C
37 C37     4.2691    -0.6632    -2.1222 C
38 C38     4.4932    -0.4097     2.9413 C
39 C39     2.3882    -1.6458     2.9236 C
40 C40    -4.0596     1.1444    -0.4546 C
41 C41    -5.1083     1.2745     1.7459 C
42 C42    -7.0042    -1.5464     0.7751 C
43 C43    -5.8560    -3.6734     0.4341 C
44 C44    -3.3343    -3.0247     2.8978 C
45 C45    -2.8700    -0.6742     3.3561 C
46 C46     8.0554    -2.9090     0.0446 C
47 C47     8.2119    -3.8829     0.9490 C
48 C48     7.0786    -4.2815     1.8080 C
49 C49     4.0423     2.0148    -1.2840 C
50 C50     4.1594     1.7302    -2.5861 C
51 C51     4.2797     0.3253    -3.0254 C
52 C52     4.1749     0.0238     4.3182 C
53 C53     3.0306    -0.3605     4.8952 C
54 C54     2.0967    -1.2411     4.1659 C
55 C55    -4.2810     2.5991    -0.5952 C
56 C56    -4.8666     3.2877     0.3907 C
57 C57    -5.2994     2.5930     1.6191 C
58 C58    -8.2865    -2.2685     0.6374 C
59 C59    -8.2938    -3.5882     0.4182 C
60 C60    -7.0189    -4.3238     0.3062 C
61 C61    -2.6648    -3.3601     4.1716 C
62 C62    -2.1508    -2.3896     4.9348 C
63 C63    -2.2540    -0.9820     4.5043 C
64 C64     1.9619     4.5673     4.5753 C
65 C65     1.0559     4.9358     3.5809 C
66 C66     1.1413     4.3732     2.2966 C
67 C67     2.1371     3.4214     2.0244 C
68 C68     3.0494     3.0769     3.0146 C
69 C69     2.9636     3.6412     4.2909 C
70 C70     0.1974     4.8470     1.2663 C
71 N71     0.5365     4.7779    -0.0639 N
72 S72    -0.2560     5.8831    -1.1213 S
73 O73    -1.6820     5.5493    -1.2209 O
74 O74     0.1260     7.2213    -0.6700 O
75 C75     0.5665     5.4280    -2.6690 C
76 C76    -0.2032     4.9145    -3.7072 C
77 C77     0.4815     4.5805    -4.8769 C
78 C78     1.8608     4.7675    -4.9295 C
79 C79     2.5174     5.2864    -3.8098 C
80 N80     1.8787     5.6224    -2.6852 N
81 N81    -1.1142     2.5632     2.3093 N
82 C82    -1.5212     2.7820     3.5577 C
83 C83    -2.2719     3.9801     3.6151 C
84 C84    -2.2889     4.4911     2.3311 C
85 C85    -1.4727     3.6511     1.5021 C
86 H86    -1.3506    -5.4058    -1.4386 H
87 H87    -0.8035    -7.7335    -1.6063 H
88 H88     3.3120    -6.9498    -0.6231 H
89 H89     4.0235    -4.5946    -0.0949 H
90 H90     1.5838    -8.5327    -1.2084 H
91 H91     0.4844    -3.6312    -3.5629 H
92 H92    -4.6886    -2.0932    -2.0073 H
93 H93    -4.4153    -2.7613    -4.3846 H
94 H94    -0.5122    -4.0061    -5.7047 H
95 H95    -2.9680    -3.5738    -6.1227 H
96 H96     6.6545    -1.4397    -0.8270 H
97 H97     5.0680    -3.9677     2.3148 H
98 H98     3.8941     1.1749     0.7540 H
99 H99     4.3532    -1.6912    -2.4523 H
100 H100     5.4230    -0.0850     2.4905 H
101 H101     1.7020    -2.3062     2.4124 H
102 H102    -3.5958     0.6100    -1.2721 H
103 H103    -5.4375     0.7714     2.6465 H
104 H104    -7.0316    -0.4802     0.9442 H
105 H105    -4.9287    -4.2201     0.3230 H
106 H106    -3.7054    -3.8315     2.2834 H
107 H107    -2.9094     0.3570     3.0407 H
108 H108     8.8857    -2.6128    -0.5834 H
109 H109     9.1685    -4.3780     1.0551 H
110 H110     7.2099    -5.0649     2.5431 H
111 H111     3.9500     3.0434    -0.9596 H
112 H112     4.1652     2.5270    -3.3186 H
113 H113     4.3733     0.0975    -4.0792 H
114 H114     4.8639     0.6648     4.8528 H
115 H115     2.7914    -0.0346     5.8992 H
116 H116     1.1804    -1.5663     4.6420 H
117 H117    -3.9674     3.1069    -1.4978 H
118 H118    -5.0233     4.3538     0.2907 H
119 H119    -5.7751     3.1522     2.4142 H
120 H120    -9.2199    -1.7260     0.7145 H
121 H121    -9.2323    -4.1177     0.3163 H
122 H122    -7.0275    -5.3883     0.1105 H
123 H123    -2.5839    -4.3942     4.4805 H
124 H124    -1.6533    -2.6340     5.8643 H
125 H125    -1.8207    -0.2022     5.1163 H
126 H126     1.8920     5.0147     5.5621 H
127 H127     0.2937     5.6794     3.7905 H
128 H128     2.1975     2.9606     1.0452 H
129 H129     3.8414     2.3735     2.7908 H
130 H130     3.6807     3.3599     5.0563 H
131 H131    -0.2531     5.8038     1.5119 H
132 H132    -1.2652     4.7527    -3.5798 H
133 H133    -0.0555     4.1656    -5.7236 H
134 H134     2.4274     4.5083    -5.8177 H
135 H135     3.5942     5.4354    -3.8135 H
136 H136    -0.5551     1.7250     2.0225 H
137 H137    -1.2644     2.0962     4.3530 H
138 H138    -2.7305     4.3938     4.5015 H
139 H139    -2.7793     5.3895     1.9809 H
140 H140    -1.6443     3.4778     0.4461 H
141 S141    -0.2920     1.5691    -1.6128 S
142 O142     0.9889     2.1998    -1.1716 O
143 C143     0.1655     0.6501    -3.1822 C
144 O144    -1.3332     2.5014    -2.0683 O
145 F145     1.0975    -0.2830    -2.9719 F
146 F146    -0.9259     0.0580    -3.6831 F
147 F147     0.6340     1.5214    -4.0891 F
148 H148     0.7995     3.8730    -0.4939 H
@<TRIPOS>BOND
1 1 2 1
2 1 3 2
3 1 86 1
4 2 4 2
5 2 5 1
6 3 8 1
7 3 87 1
8 4 6 1
9 4 7 1
10 5 9 2
11 5 10 1
12 6 8 2
13 6 88 1
14 7 11 2
15 7 89 1
16 8 90 1
17 9 11 1
18 9 12 1
19 10 14 2
20 10 15 1
21 11 13 1
22 12 25 1
23 13 28 1
24 13 29 1
25 13 30 1
26 14 16 1
27 14 17 1
28 15 20 2
29 15 22 1
30 16 18 2
31 16 19 1
32 17 23 2
33 17 91 1
34 18 20 1
35 18 92 1
36 19 24 2
37 19 93 1
38 20 21 1
39 21 31 1
40 21 32 1
41 21 33 1
42 22 25 1
43 23 24 1
44 23 94 1
45 24 95 1
46 25 26 2
47 25 27 Ar
48 27 141 Ar
49 28 34 2
50 28 35 1
51 29 36 2
52 29 37 1
53 30 38 2
54 30 39 1
55 31 40 2
56 31 41 1
57 32 42 2
58 32 43 1
59 33 44 2
60 33 45 1
61 34 46 1
62 34 96 1
63 35 48 2
64 35 97 1
65 36 49 1
66 36 98 1
67 37 51 2
68 37 99 1
69 38 52 1
70 38 100 1
71 39 54 2
72 39 101 1
73 40 55 1
74 40 102 1
75 41 57 2
76 41 103 1
77 42 58 1
78 42 104 1
79 43 60 2
80 43 105 1
81 44 61 1
82 44 106 1
83 45 63 2
84 45 107 1
85 46 47 2
86 46 108 1
87 47 48 1
88 47 109 1
89 48 110 1
90 49 50 2
91 49 111 1
92 50 51 1
93 50 112 1
94 51 113 1
95 52 53 2
96 52 114 1
97 53 54 1
98 53 115 1
99 54 116 1
100 55 56 2
101 55 117 1
102 56 57 1
103 56 118 1
104 57 119 1
105 58 59 2
106 58 120 1
107 59 60 1
108 59 121 1
109 60 122 1
110 61 62 2
111 61 123 1
112 62 63 1
113 62 124 1
114 63 125 1
115 64 65 Ar
116 64 69 Ar
117 64 126 1
118 65 66 Ar
119 65 127 1
120 66 67 Ar
121 66 70 1
122 67 68 Ar
123 67 128 1
124 68 69 Ar
125 68 129 1
126 69 130 1
127 70 71 Ar
128 70 131 1
129 71 72 1
130 71 148 1
131 72 73 2
132 72 74 2
133 72 75 1
134 75 76 Ar
135 75 80 Ar
136 76 77 Ar
137 76 132 1
138 77 78 Ar
139 77 133 1
140 78 79 Ar
141 78 134 1
142 79 80 Ar
143 79 135 1
144 81 82 Ar
145 81 85 1
146 81 136 1
147 82 83 Ar
148 82 137 1
149 83 84 2
150 83 138 1
151 84 85 Ar
152 84 139 1
153 85 140 1
154 141 142 2
155 141 143 1
156 141 144 2
157 143 145 1
158 143 146 1
159 143 147 1
