# Title Card Required
# Created by GaussView 5.0.9
#

#
#

@<TRIPOS>MOLECULE
Molecule Name
148 159
SMALL
NO_CHARGES


@<TRIPOS>ATOM
1 C1    -1.6888     5.7050    -1.6881 C
2 C2    -0.4578     4.9305    -1.3715 C
3 C3    -1.6125     6.8296    -2.4092 C
4 C4     0.7294     5.3586    -1.8518 C
5 C5    -0.5137     3.6733    -0.5687 C
6 C6     0.8039     6.6075    -2.6452 C
7 C7     1.9574     4.5912    -1.5721 C
8 C8    -0.3070     7.3054    -2.9055 C
9 C9     0.5793     2.8834    -0.4839 C
10 C10    -1.7409     3.2992     0.1729 C
11 C11     1.9008     3.4291    -0.9025 C
12 O12     0.5133     1.6747     0.1723 O
13 Si13     3.4805     2.5455    -0.4594 Si
14 C14    -2.2590     4.0837     1.1482 C
15 C15    -2.3920     2.0027    -0.1569 C
16 C16    -3.5423     3.7039     1.7884 C
17 C17    -1.5923     5.3176     1.6398 C
18 C18    -4.1709     2.5822     1.4217 C
19 C19    -4.1113     4.5908     2.8226 C
20 C20    -3.5809     1.6874     0.4009 C
21 Si21    -4.5164     0.1191     0.0250 Si
22 O22    -1.7922     1.1712    -1.0705 O
23 C23    -2.1624     6.0676     2.5903 C
24 C24    -3.4620     5.6998     3.1916 C
25 P25    -0.3767     0.5035    -0.5839 P
26 O26     0.3048    -0.0831    -1.7721 O
27 N27    -0.8313    -0.4638     0.6463 N
28 C28     4.9535     3.6122    -0.8476 C
29 C29     3.5997     2.2262     1.3702 C
30 C30     3.5308     1.0021    -1.4859 C
31 C31    -4.3066    -1.0688     1.4484 C
32 C32    -6.3113     0.6050    -0.1387 C
33 C33    -3.9594    -0.6720    -1.5688 C
34 C34     5.9023     3.2191    -1.7145 C
35 C35     5.0974     4.9121    -0.1489 C
36 C36     4.6632     1.5709     1.8663 C
37 C37     2.5814     2.7691     2.3043 C
38 C38     3.7392    -0.2076    -0.9426 C
39 C39     3.3863     1.1288    -2.9565 C
40 C40    -3.6017    -0.7269     2.5415 C
41 C41    -4.9361    -2.4109     1.3830 C
42 C42    -6.6563     1.6418    -0.9228 C
43 C43    -7.3670    -0.0948     0.6366 C
44 C44    -4.1472    -0.0480    -2.7447 C
45 C45    -3.3161    -2.0080    -1.5552 C
46 C46     7.0663     4.0887    -1.9854 C
47 C47     7.1853     5.2658    -1.3600 C
48 C48     6.1538     5.6964    -0.3950 C
49 C49     4.7833     1.3366     3.3200 C
50 C50     3.8442     1.7983     4.1535 C
51 C51     2.6955     2.5586     3.6216 C
52 C52     3.8960    -1.3884    -1.8141 C
53 C53     3.7951    -1.2655    -3.1428 C
54 C54     3.5108     0.0524    -3.7410 C
55 C55    -3.4688    -1.6728     3.6690 C
56 C56    -4.0448    -2.8784     3.6050 C
57 C57    -4.8157    -3.2644     2.4069 C
58 C58    -8.0710     2.0488    -1.0471 C
59 C59    -9.0182     1.3988    -0.3626 C
60 C60    -8.6477     0.2794     0.5250 C
61 C61    -3.7694    -0.7095    -4.0105 C
62 C62    -3.2377    -1.9361    -3.9924 C
63 C63    -2.9938    -2.6130    -2.7042 C
64 C64    -2.5742    -5.2432    -0.1315 C
65 C65    -1.2093    -4.9738    -0.0848 C
66 C66    -0.3605    -5.4860    -1.0822 C
67 C67    -0.9134    -6.2471    -2.1314 C
68 C68    -2.2769    -6.5076    -2.1719 C
69 C69    -3.1120    -6.0072    -1.1677 C
70 C70     1.0955    -5.3758    -1.0006 C
71 N71     1.7132    -4.8488     0.0831 N
72 S72     3.3628    -5.2899     0.3860 S
73 O73     3.3566    -6.6370     0.9451 O
74 O74     4.1352    -5.0240    -0.8370 O
75 C75     3.8150    -4.0608     1.6340 C
76 C76     4.8715    -3.1946     1.3721 C
77 C77     5.1980    -2.2929     2.3867 C
78 C78     4.4700    -2.3207     3.5731 C
79 C79     3.4378    -3.2531     3.7149 C
80 N80     3.1094    -4.1207     2.7536 N
81 N81     1.0361    -2.7868    -2.4591 N
82 C82     0.1916    -2.5637    -3.4742 C
83 C83     0.3178    -3.6061    -4.4106 C
84 C84     1.3041    -4.4622    -3.9274 C
85 C85     1.7317    -3.9761    -2.6682 C
86 H86    -2.6580     5.3644    -1.3482 H
87 H87    -2.5100     7.3903    -2.6369 H
88 H88     1.7580     6.9599    -3.0171 H
89 H89     2.9027     4.9906    -1.9133 H
90 H90    -0.2522     8.2175    -3.4857 H
91 H91    -0.6276     5.6211     1.2553 H
92 H92    -5.1099     2.3116     1.8908 H
93 H93    -5.0580     4.3481     3.2906 H
94 H94    -1.6592     6.9613     2.9369 H
95 H95    -3.8891     6.3401     3.9527 H
96 H96     5.8408     2.2662    -2.2209 H
97 H97     4.3456     5.2334     0.5615 H
98 H98     5.4436     1.2033     1.2114 H
99 H99     1.7502     3.3540     1.9373 H
100 H100     3.8253    -0.3390     0.1259 H
101 H101     3.1892     2.0956    -3.4027 H
102 H102    -3.1189     0.2368     2.6216 H
103 H103    -5.4979    -2.7055     0.5053 H
104 H104    -5.9073     2.2131    -1.4539 H
105 H105    -7.1191    -0.9019     1.3083 H
106 H106    -4.5834     0.9380    -2.7912 H
107 H107    -3.0844    -2.4953    -0.6203 H
108 H108     7.8232     3.7695    -2.6902 H
109 H109     8.0378     5.9028    -1.5574 H
110 H110     6.2555     6.6464     0.1136 H
111 H111     5.6325     0.7894     3.7080 H
112 H112     3.9296     1.6252     5.2184 H
113 H113     1.9516     2.9540     4.3011 H
114 H114     4.0967    -2.3530    -1.3748 H
115 H115     3.9111    -2.1324    -3.7802 H
116 H116     3.4102     0.1466    -4.8144 H
117 H117    -2.8984    -1.3889     4.5439 H
118 H118    -3.9446    -3.5735     4.4285 H
119 H119    -5.2773    -4.2420     2.3561 H
120 H120    -8.3378     2.8770    -1.6909 H
121 H121   -10.0549     1.6969    -0.4506 H
122 H122    -9.4145    -0.2318     1.0927 H
123 H123    -3.9345    -0.2031    -4.9526 H
124 H124    -2.9629    -2.4249    -4.9181 H
125 H125    -2.5207    -3.5845    -2.6937 H
126 H126    -3.2125    -4.8512     0.6513 H
127 H127    -0.8247    -4.3921     0.7442 H
128 H128    -0.2644    -6.6357    -2.9098 H
129 H129    -2.6895    -7.1018    -2.9812 H
130 H130    -4.1779    -6.2126    -1.1952 H
131 H131     1.6544    -6.1640    -1.4963 H
132 H132     5.4038    -3.2302     0.4304 H
133 H133     6.0051    -1.5813     2.2457 H
134 H134     4.6913    -1.6336     4.3825 H
135 H135     2.8498    -3.3010     4.6257 H
136 H136     1.1068    -2.1456    -1.6676 H
137 H137    -0.4192    -1.6738    -3.4641 H
138 H138    -0.2454    -3.6963    -5.3281 H
139 H139     1.6937    -5.3488    -4.4101 H
140 H140     2.7124    -4.1183    -2.2386 H
141 S141    -0.0630    -1.6000     1.3708 S
142 O142     1.0603    -2.2304     0.5902 O
143 C143     0.8299    -0.7573     2.7918 C
144 O144    -0.9615    -2.5550     2.0327 O
145 F145     0.1197     0.2758     3.2480 F
146 F146     1.0099    -1.6247     3.8019 F
147 F147     2.0299    -0.3220     2.3895 F
148 H148     1.3772    -3.9590     0.5101 H
@<TRIPOS>BOND
1 1 2 1
2 1 3 2
3 1 86 1
4 2 4 2
5 2 5 1
6 3 8 1
7 3 87 1
8 4 6 1
9 4 7 1
10 5 9 2
11 5 10 1
12 6 8 2
13 6 88 1
14 7 11 2
15 7 89 1
16 8 90 1
17 9 11 1
18 9 12 1
19 10 14 2
20 10 15 1
21 11 13 1
22 12 25 1
23 13 28 1
24 13 29 1
25 13 30 1
26 14 16 1
27 14 17 1
28 15 20 2
29 15 22 1
30 16 18 2
31 16 19 1
32 17 23 2
33 17 91 1
34 18 20 1
35 18 92 1
36 19 24 2
37 19 93 1
38 20 21 1
39 21 31 1
40 21 32 1
41 21 33 1
42 22 25 1
43 23 24 1
44 23 94 1
45 24 95 1
46 25 26 2
47 25 27 Ar
48 27 141 Ar
49 28 34 2
50 28 35 1
51 29 36 2
52 29 37 1
53 30 38 2
54 30 39 1
55 31 40 2
56 31 41 1
57 32 42 2
58 32 43 1
59 33 44 2
60 33 45 1
61 34 46 1
62 34 96 1
63 35 48 2
64 35 97 1
65 36 49 1
66 36 98 1
67 37 51 2
68 37 99 1
69 38 52 1
70 38 100 1
71 39 54 2
72 39 101 1
73 40 55 1
74 40 102 1
75 41 57 2
76 41 103 1
77 42 58 1
78 42 104 1
79 43 60 2
80 43 105 1
81 44 61 1
82 44 106 1
83 45 63 2
84 45 107 1
85 46 47 2
86 46 108 1
87 47 48 1
88 47 109 1
89 48 110 1
90 49 50 2
91 49 111 1
92 50 51 1
93 50 112 1
94 51 113 1
95 52 53 2
96 52 114 1
97 53 54 1
98 53 115 1
99 54 116 1
100 55 56 2
101 55 117 1
102 56 57 1
103 56 118 1
104 57 119 1
105 58 59 2
106 58 120 1
107 59 60 1
108 59 121 1
109 60 122 1
110 61 62 2
111 61 123 1
112 62 63 1
113 62 124 1
114 63 125 1
115 64 65 Ar
116 64 69 Ar
117 64 126 1
118 65 66 Ar
119 65 127 1
120 66 67 Ar
121 66 70 1
122 67 68 Ar
123 67 128 1
124 68 69 Ar
125 68 129 1
126 69 130 1
127 70 71 Ar
128 70 131 1
129 71 72 1
130 71 148 1
131 72 73 2
132 72 74 2
133 72 75 1
134 75 76 Ar
135 75 80 Ar
136 76 77 Ar
137 76 132 1
138 77 78 Ar
139 77 133 1
140 78 79 Ar
141 78 134 1
142 79 80 Ar
143 79 135 1
144 81 82 Ar
145 81 85 1
146 81 136 1
147 82 83 Ar
148 82 137 1
149 83 84 Ar
150 83 138 1
151 84 85 Ar
152 84 139 1
153 85 140 1
154 141 142 Ar
155 141 143 1
156 141 144 2
157 143 145 1
158 143 146 1
159 143 147 1
