# Title Card Required
# Created by GaussView 5.0.9
#

#
#

@<TRIPOS>MOLECULE
Molecule Name
148 160
SMALL
NO_CHARGES


@<TRIPOS>ATOM
1 C1    -6.2140    -1.4182    -0.2049 C
2 C2    -4.8915    -2.1057    -0.2030 C
3 C3    -7.3277    -2.0891     0.1106 C
4 C4    -4.8323    -3.4010     0.1778 C
5 C5    -3.6306    -1.3869    -0.5672 C
6 C6    -6.0725    -4.1358     0.5205 C
7 C7    -3.5290    -4.0755     0.3108 C
8 C8    -7.2553    -3.5144     0.4807 C
9 C9    -2.4337    -1.9953    -0.3783 C
10 C10    -3.6714     0.0217    -1.0420 C
11 C11    -2.3867    -3.4174     0.0661 C
12 O12    -1.2682    -1.3557    -0.7333 O
13 Si13    -0.7655    -4.2584     0.4504 Si
14 C14    -4.3404     0.4065    -2.1529 C
15 C15    -2.9574     1.0403    -0.2263 C
16 C16    -4.4821     1.8538    -2.4561 C
17 C17    -4.9586    -0.5551    -3.0997 C
18 C18    -3.9281     2.7706    -1.6513 C
19 C19    -5.2645     2.2550    -3.6419 C
20 C20    -3.1103     2.3547    -0.4897 C
21 Si21    -2.2809     3.7001     0.5098 Si
22 O22    -2.1372     0.6115     0.7857 O
23 C23    -5.6447    -0.1171    -4.1620 C
24 C24    -5.8089     1.3269    -4.4366 C
25 P25    -0.7829    -0.1365     0.2591 P
26 O26    -0.0076    -0.6102     1.4390 O
27 N27    -0.1018     0.9489    -0.7478 N
28 C28    -1.0087    -6.1119     0.3889 C
29 C29     0.5065    -3.7713    -0.8243 C
30 C30    -0.2334    -3.7742     2.1730 C
31 C31    -0.9680     4.5363    -0.5180 C
32 C32    -3.6242     4.9078     0.9641 C
33 C33    -1.4937     3.0280     2.0631 C
34 C34    -1.4768    -6.6991    -0.7268 C
35 C35    -0.7401    -6.9515     1.5849 C
36 C36     0.2607    -3.9637    -2.1320 C
37 C37     1.7976    -3.1640    -0.4160 C
38 C38    -1.0257    -3.0187     2.9546 C
39 C39     1.0545    -4.2738     2.7159 C
40 C40    -0.7616     4.1974    -1.8025 C
41 C41    -0.1173     5.5822     0.1018 C
42 C42    -3.4790     6.2304     0.7722 C
43 C43    -4.9098     4.3895     1.4940 C
44 C44    -2.2522     2.6100     3.0914 C
45 C45    -0.0196     2.8702     2.1412 C
46 C46    -1.6798    -8.1618    -0.7759 C
47 C47    -1.4148    -8.9120     0.2987 C
48 C48    -0.9286    -8.2762     1.5382 C
49 C49     1.2892    -3.6423    -3.1425 C
50 C50     2.4656    -3.1337    -2.7625 C
51 C51     2.7269    -2.8738    -1.3341 C
52 C52    -0.6085    -2.6753     4.3299 C
53 C53     0.5545    -3.1284     4.8111 C
54 C54     1.4263    -3.9671     3.9646 C
55 C55     0.2872     4.8756    -2.5926 C
56 C56     1.0472     5.8208    -2.0281 C
57 C57     0.8356     6.1903    -0.6147 C
58 C58    -4.5729     7.1593     1.1261 C
59 C59    -5.7216     6.6861     1.6223 C
60 C60    -5.9004     5.2328     1.8087 C
61 C61    -1.6241     2.0139     4.2891 C
62 C62    -0.2950     1.8800     4.3535 C
63 C63     0.5451     2.3291     3.2274 C
64 C64     4.3890     3.6541     3.9236 C
65 C65     4.8456     2.4485     3.3934 C
66 C66     4.5355     2.0808     2.0770 C
67 C67     3.7729     2.9511     1.2913 C
68 C68     3.3226     4.1614     1.8220 C
69 C69     3.6217     4.5149     3.1366 C
70 C70     5.0680     0.7596     1.5324 C
71 N71     5.0812     0.7261     0.0754 N
72 S72     6.2773    -0.2548    -0.5986 S
73 O73     7.5747     0.3292    -0.2500 O
74 O74     6.0535    -1.6789    -0.2598 O
75 C75     5.8962    -0.0588    -2.3613 C
76 C76     5.7023    -1.2060    -3.1259 C
77 C77     5.4390    -1.0168    -4.4831 C
78 C78     5.3790     0.2819    -4.9828 C
79 C79     5.5911     1.3519    -4.1088 C
80 N80     5.8577     1.1890    -2.8095 N
81 N81     2.8773    -0.4802     1.9465 N
82 C82     2.2600    -0.6628     3.0779 C
83 C83     3.2168    -0.8463     4.1419 C
84 C84     4.4490    -0.7606     3.5857 C
85 C85     4.3231    -0.5158     2.1226 C
86 H86    -6.2933    -0.3666    -0.4429 H
87 H87    -8.2849    -1.5838     0.1079 H
88 H88    -6.0253    -5.1791     0.8073 H
89 H89    -3.5120    -5.0952     0.6739 H
90 H90    -8.1604    -4.0517     0.7326 H
91 H91    -4.8519    -1.6225    -2.9551 H
92 H92    -4.0464     3.8261    -1.8681 H
93 H93    -5.4011     3.3037    -3.8774 H
94 H94    -6.0868    -0.8335    -4.8427 H
95 H95    -6.3779     1.6352    -5.3042 H
96 H96    -1.7374    -6.1171    -1.5976 H
97 H97    -0.4089    -6.5074     2.5114 H
98 H98    -0.6890    -4.3491    -2.4714 H
99 H99     1.9977    -2.9316     0.6185 H
100 H100    -1.9777    -2.6489     2.5993 H
101 H101     1.6952    -4.8989     2.1066 H
102 H102    -1.3424     3.4223    -2.2808 H
103 H103    -0.2596     5.8535     1.1405 H
104 H104    -2.5719     6.6431     0.3578 H
105 H105    -5.0643     3.3243     1.6081 H
106 H106    -3.3289     2.6787     3.0550 H
107 H107     0.6081     3.1580     1.3100 H
108 H108    -2.0464    -8.6236    -1.6835 H
109 H109    -1.5649    -9.9834     0.2651 H
110 H110    -0.7353    -8.8836     2.4130 H
111 H111     1.0872    -3.8187    -4.1910 H
112 H112     3.2184    -2.8956    -3.5018 H
113 H113     3.6631    -2.4270    -1.0328 H
114 H114    -1.2465    -2.0551     4.9461 H
115 H115     0.8621    -2.8759     5.8175 H
116 H116     2.3664    -4.3324     4.3569 H
117 H117     0.4444     4.5981    -3.6268 H
118 H118     1.8197     6.3136    -2.6041 H
119 H119     1.4566     6.9502    -0.1583 H
120 H120    -4.4421     8.2239     0.9811 H
121 H121    -6.5238     7.3654     1.8800 H
122 H122    -6.8387     4.8508     2.1897 H
123 H123    -2.2437     1.6782     5.1105 H
124 H124     0.1664     1.4350     5.2256 H
125 H125     1.6173     2.2009     3.2771 H
126 H126     4.6440     3.9253     4.9438 H
127 H127     5.4658     1.7997     4.0073 H
128 H128     3.5308     2.7099     0.2636 H
129 H129     2.7304     4.8214     1.1972 H
130 H130     3.2668     5.4566     3.5445 H
131 H131     6.1085     0.6535     1.8587 H
132 H132     5.7459    -2.1863    -2.6680 H
133 H133     5.2753    -1.8704    -5.1332 H
134 H134     5.1661     0.4706    -6.0297 H
135 H135     5.5468     2.3785    -4.4635 H
136 H136     2.3992    -0.3234     1.0365 H
137 H137     1.1757    -0.6693     3.0860 H
138 H138     2.9608    -1.0267     5.1762 H
139 H139     5.4028    -0.8695     4.0859 H
140 H140     4.7296    -1.3700     1.5568 H
141 S141     1.3516     1.0599    -1.2816 S
142 O142     2.3325     0.0897    -0.6713 O
143 C143     1.2291     0.4749    -3.0502 C
144 O144     1.8456     2.4362    -1.3901 O
145 F145     0.5903     1.3890    -3.7860 F
146 F146     2.4582     0.2935    -3.5600 F
147 F147     0.5599    -0.6780    -3.1158 F
148 H148     4.1654     0.5739    -0.3687 H
@<TRIPOS>BOND
1 1 2 1
2 1 3 2
3 1 86 1
4 2 4 2
5 2 5 1
6 3 8 1
7 3 87 1
8 4 6 1
9 4 7 1
10 5 9 2
11 5 10 1
12 6 8 2
13 6 88 1
14 7 11 2
15 7 89 1
16 8 90 1
17 9 11 1
18 9 12 1
19 10 14 2
20 10 15 1
21 11 13 1
22 12 25 1
23 13 28 1
24 13 29 1
25 13 30 1
26 14 16 1
27 14 17 1
28 15 20 2
29 15 22 1
30 16 18 2
31 16 19 1
32 17 23 2
33 17 91 1
34 18 20 1
35 18 92 1
36 19 24 2
37 19 93 1
38 20 21 1
39 21 31 1
40 21 32 1
41 21 33 1
42 22 25 1
43 23 24 1
44 23 94 1
45 24 95 1
46 25 26 2
47 25 27 Ar
48 27 141 Ar
49 28 34 2
50 28 35 1
51 29 36 2
52 29 37 1
53 30 38 2
54 30 39 1
55 31 40 2
56 31 41 1
57 32 42 2
58 32 43 1
59 33 44 2
60 33 45 1
61 34 46 1
62 34 96 1
63 35 48 2
64 35 97 1
65 36 49 1
66 36 98 1
67 37 51 2
68 37 99 1
69 38 52 1
70 38 100 1
71 39 54 2
72 39 101 1
73 40 55 1
74 40 102 1
75 41 57 2
76 41 103 1
77 42 58 1
78 42 104 1
79 43 60 2
80 43 105 1
81 44 61 1
82 44 106 1
83 45 63 2
84 45 107 1
85 46 47 2
86 46 108 1
87 47 48 1
88 47 109 1
89 48 110 1
90 49 50 2
91 49 111 1
92 50 51 1
93 50 112 1
94 51 113 1
95 52 53 2
96 52 114 1
97 53 54 1
98 53 115 1
99 54 116 1
100 55 56 2
101 55 117 1
102 56 57 1
103 56 118 1
104 57 119 1
105 58 59 2
106 58 120 1
107 59 60 1
108 59 121 1
109 60 122 1
110 61 62 2
111 61 123 1
112 62 63 1
113 62 124 1
114 63 125 1
115 64 65 Ar
116 64 69 Ar
117 64 126 1
118 65 66 Ar
119 65 127 1
120 66 67 Ar
121 66 70 1
122 67 68 Ar
123 67 128 1
124 68 69 Ar
125 68 129 1
126 69 130 1
127 70 71 1
128 70 85 1
129 70 131 1
130 71 72 1
131 71 148 1
132 72 73 2
133 72 74 2
134 72 75 1
135 75 76 Ar
136 75 80 Ar
137 76 77 Ar
138 76 132 1
139 77 78 Ar
140 77 133 1
141 78 79 Ar
142 78 134 1
143 79 80 Ar
144 79 135 1
145 81 82 2
146 81 85 1
147 81 136 1
148 82 83 Ar
149 82 137 1
150 83 84 2
151 83 138 1
152 84 85 1
153 84 139 1
154 85 140 1
155 141 142 Ar
156 141 143 1
157 141 144 2
158 143 145 1
159 143 146 1
160 143 147 1
