# Title Card Required
# Created by GaussView 5.0.9
#

#
#

@<TRIPOS>MOLECULE
Molecule Name
148 159
SMALL
NO_CHARGES


@<TRIPOS>ATOM
1 C1    -3.1424    -4.6838    -1.6435 C
2 C2    -1.7497    -4.3312    -1.2447 C
3 C3    -3.4973    -5.9629    -1.8106 C
4 C4    -0.8721    -5.3283    -0.9999 C
5 C5    -1.3159    -2.9079    -1.0769 C
6 C6    -1.2734    -6.7415    -1.1941 C
7 C7     0.4735    -5.0197    -0.4882 C
8 C8    -2.5161    -7.0400    -1.5855 C
9 C9    -0.1136    -2.6394    -0.5028 C
10 C10    -2.2259    -1.8055    -1.4851 C
11 C11     0.8264    -3.7578    -0.2082 C
12 O12     0.3573    -1.3519    -0.3831 O
13 Si13     2.4836    -3.4124     0.5807 Si
14 C14    -2.7122    -1.6772    -2.7405 C
15 C15    -2.6900    -0.8767    -0.4255 C
16 C16    -3.8164    -0.7176    -3.0021 C
17 C17    -2.2027    -2.4667    -3.8886 C
18 C18    -4.3287     0.0124    -2.0013 C
19 C19    -4.3578    -0.6197    -4.3716 C
20 C20    -3.7469    -0.0681    -0.6429 C
21 Si21    -4.4730     1.0155     0.6937 Si
22 O22    -1.9817    -0.8117     0.7466 O
23 C23    -2.7392    -2.3186    -5.1056 C
24 C24    -3.8497    -1.3732    -5.3533 C
25 P25    -0.4577    -0.2681     0.5418 P
26 O26     0.1621    -0.0648     1.8828 O
27 N27    -0.6151     1.0517    -0.4151 N
28 C28     3.5675    -4.9238     0.5476 C
29 C29     3.2977    -2.0322    -0.3649 C
30 C30     2.2361    -2.9914     2.3758 C
31 C31    -3.9191     2.7809     0.4557 C
32 C32    -6.3258     0.8877     0.5394 C
33 C33    -3.9597     0.3787     2.3725 C
34 C34     4.6644    -4.9817    -0.2266 C
35 C35     3.2343    -6.0710     1.4266 C
36 C36     3.9226    -1.0228     0.2629 C
37 C37     3.2590    -2.0553    -1.8470 C
38 C38     3.2971    -2.8663     3.1906 C
39 C39     0.8682    -2.8786     2.9410 C
40 C40    -3.2055     3.1454    -0.6234 C
41 C41    -4.2789     3.8060     1.4668 C
42 C42    -7.1084     1.9810     0.5313 C
43 C43    -6.9479    -0.4488     0.3676 C
44 C44    -4.3091    -0.8602     2.7612 C
45 C45    -3.0834     1.1903     3.2532 C
46 C46     5.5183    -6.1881    -0.2157 C
47 C47     5.2077    -7.2236     0.5730 C
48 C48     4.0109    -7.1612     1.4358 C
49 C49     4.5747     0.0489    -0.5179 C
50 C50     4.5342     0.0239    -1.8545 C
51 C51     3.8411    -1.0772    -2.5518 C
52 C52     3.1033    -2.5865     4.6284 C
53 C53     1.8678    -2.4622     5.1273 C
54 C54     0.6959    -2.6177     4.2426 C
55 C55    -2.7808     4.5507    -0.7958 C
56 C56    -3.0966     5.4659     0.1272 C
57 C57    -3.8825     5.0751     1.3139 C
58 C58    -8.5740     1.8480     0.3947 C
59 C59    -9.1290     0.6383     0.2607 C
60 C60    -8.2752    -0.5655     0.2393 C
61 C61    -3.8335    -1.4021     4.0510 C
62 C62    -3.0421    -0.6646     4.8371 C
63 C63    -2.6491     0.6944     4.4183 C
64 C64     4.6451     1.9318     4.4155 C
65 C65     4.7369     2.7818     3.3251 C
66 C66     3.8639     2.6177     2.2232 C
67 C67     2.8920     1.5941     2.2426 C
68 C68     2.7969     0.7599     3.3471 C
69 C69     3.6709     0.9255     4.4260 C
70 C70     4.0055     3.5517     1.1479 C
71 N71     3.3665     3.5582     0.0122 N
72 S72     3.6164     4.9177    -1.1300 S
73 O73     2.2943     5.4656    -1.3779 O
74 O74     4.7032     5.6900    -0.5427 O
75 C75     4.1658     4.0090    -2.5975 C
76 C76     3.2012     3.5788    -3.5035 C
77 C77     3.6774     2.8928    -4.6230 C
78 C78     5.0495     2.6996    -4.7652 C
79 C79     5.9105     3.1799    -3.7730 C
80 N80     5.4750     3.8241    -2.6856 N
81 N81    -0.1102     2.7704     2.7949 N
82 C82     0.0913     3.2726     4.0565 C
83 C83     0.0064     4.6486     3.9882 C
84 C84    -0.2608     4.9862     2.6299 C
85 C85    -0.3307     3.8053     1.9187 C
86 H86    -3.8911    -3.9166    -1.7855 H
87 H87    -4.5104    -6.2119    -2.0992 H
88 H88    -0.5622    -7.5387    -1.0163 H
89 H89     1.1489    -5.8408    -0.2971 H
90 H90    -2.8090    -8.0726    -1.7250 H
91 H91    -1.3779    -3.1567    -3.7641 H
92 H92    -5.1493     0.6946    -2.1902 H
93 H93    -5.1701     0.0630    -4.5907 H
94 H94    -2.3506    -2.8986    -5.9329 H
95 H95    -4.2554    -1.2901    -6.3534 H
96 H96     4.9431    -4.1568    -0.8676 H
97 H97     2.3601    -6.0315     2.0646 H
98 H98     3.9732    -0.9799     1.3397 H
99 H99     2.7545    -2.8609    -2.3656 H
100 H100     4.3048    -2.9785     2.8099 H
101 H101    -0.0015    -3.0026     2.3108 H
102 H102    -2.9312     2.4275    -1.3835 H
103 H103    -4.8597     3.5296     2.3380 H
104 H104    -6.6918     2.9724     0.6227 H
105 H105    -6.3325    -1.3368     0.3156 H
106 H106    -4.9107    -1.4946     2.1277 H
107 H107    -2.7682     2.1783     2.9564 H
108 H108     6.3965    -6.2307    -0.8469 H
109 H109     5.8330    -8.1070     0.5822 H
110 H110     3.7650    -7.9981     2.0766 H
111 H111     5.0834     0.8551    -0.0058 H
112 H112     5.0097     0.8077    -2.4260 H
113 H113     3.8065    -1.0913    -3.6334 H
114 H114     3.9638    -2.4771     5.2754 H
115 H115     1.7247    -2.2513     6.1790 H
116 H116    -0.3025    -2.5262     4.6506 H
117 H117    -2.2088     4.8365    -1.6688 H
118 H118    -2.7797     6.4935     0.0052 H
119 H119    -4.1403     5.8182     2.0572 H
120 H120    -9.1972     2.7330     0.4028 H
121 H121   -10.2020     0.5400     0.1591 H
122 H122    -8.7245    -1.5412     0.1065 H
123 H123    -4.1185    -2.4018     4.3522 H
124 H124    -2.6856    -1.0631     5.7782 H
125 H125    -2.0040     1.2858     5.0543 H
126 H126     5.3151     2.0540     5.2600 H
127 H127     5.4758     3.5779     3.3099 H
128 H128     2.2078     1.4489     1.4159 H
129 H129     2.0223     0.0025     3.3466 H
130 H130     3.5886     0.2735     5.2904 H
131 H131     4.7216     4.3654     1.2678 H
132 H132     2.1457     3.7563    -3.3337 H
133 H133     2.9799     2.5132    -5.3613 H
134 H134     5.4539     2.1756    -5.6247 H
135 H135     6.9851     3.0360    -3.8477 H
136 H136    -0.1229     1.7830     2.5460 H
137 H137     0.2749     2.6153     4.8937 H
138 H138     0.1186     5.3324     4.8187 H
139 H139    -0.3966     5.9772     2.2193 H
140 H140    -0.5324     3.6163     0.8757 H
141 S141     0.4023     1.7350    -1.3698 S
142 O142     1.8509     1.5610    -0.9958 O
143 C143     0.2701     0.8509    -3.0228 C
144 O144     0.0196     3.1090    -1.7146 O
145 F145     0.6853    -0.4155    -2.9738 F
146 F146    -1.0036     0.8722    -3.4280 F
147 F147     1.0144     1.5006    -3.9405 F
148 H148     2.6721     2.8209    -0.3003 H
@<TRIPOS>BOND
1 1 2 1
2 1 3 2
3 1 86 1
4 2 4 2
5 2 5 1
6 3 8 1
7 3 87 1
8 4 6 1
9 4 7 1
10 5 9 2
11 5 10 1
12 6 8 2
13 6 88 1
14 7 11 2
15 7 89 1
16 8 90 1
17 9 11 1
18 9 12 1
19 10 14 2
20 10 15 1
21 11 13 1
22 12 25 1
23 13 28 1
24 13 29 1
25 13 30 1
26 14 16 1
27 14 17 1
28 15 20 2
29 15 22 1
30 16 18 2
31 16 19 1
32 17 23 2
33 17 91 1
34 18 20 1
35 18 92 1
36 19 24 2
37 19 93 1
38 20 21 1
39 21 31 1
40 21 32 1
41 21 33 1
42 22 25 1
43 23 24 1
44 23 94 1
45 24 95 1
46 25 26 2
47 25 27 Ar
48 27 141 Ar
49 28 34 2
50 28 35 1
51 29 36 2
52 29 37 1
53 30 38 2
54 30 39 1
55 31 40 2
56 31 41 1
57 32 42 2
58 32 43 1
59 33 44 2
60 33 45 1
61 34 46 1
62 34 96 1
63 35 48 2
64 35 97 1
65 36 49 1
66 36 98 1
67 37 51 2
68 37 99 1
69 38 52 1
70 38 100 1
71 39 54 2
72 39 101 1
73 40 55 1
74 40 102 1
75 41 57 2
76 41 103 1
77 42 58 1
78 42 104 1
79 43 60 2
80 43 105 1
81 44 61 1
82 44 106 1
83 45 63 2
84 45 107 1
85 46 47 2
86 46 108 1
87 47 48 1
88 47 109 1
89 48 110 1
90 49 50 2
91 49 111 1
92 50 51 1
93 50 112 1
94 51 113 1
95 52 53 2
96 52 114 1
97 53 54 1
98 53 115 1
99 54 116 1
100 55 56 2
101 55 117 1
102 56 57 1
103 56 118 1
104 57 119 1
105 58 59 2
106 58 120 1
107 59 60 1
108 59 121 1
109 60 122 1
110 61 62 2
111 61 123 1
112 62 63 1
113 62 124 1
114 63 125 1
115 64 65 2
116 64 69 Ar
117 64 126 1
118 65 66 Ar
119 65 127 1
120 66 67 Ar
121 66 70 Ar
122 67 68 Ar
123 67 128 1
124 68 69 Ar
125 68 129 1
126 69 130 1
127 70 71 2
128 70 131 1
129 71 72 1
130 71 148 1
131 72 73 2
132 72 74 2
133 72 75 1
134 75 76 Ar
135 75 80 Ar
136 76 77 Ar
137 76 132 1
138 77 78 Ar
139 77 133 1
140 78 79 Ar
141 78 134 1
142 79 80 Ar
143 79 135 1
144 81 82 Ar
145 81 85 Ar
146 81 136 1
147 82 83 2
148 82 137 1
149 83 84 Ar
150 83 138 1
151 84 85 2
152 84 139 1
153 85 140 1
154 141 142 Ar
155 141 143 1
156 141 144 2
157 143 145 1
158 143 146 1
159 143 147 1
