# Title Card Required
# Created by GaussView 5.0.9
#

#
#

@<TRIPOS>MOLECULE
Molecule Name
148 159
SMALL
NO_CHARGES


@<TRIPOS>ATOM
1 C1     3.3705     4.7831     1.1646 C
2 C2     3.6033     3.3220     0.9802 C
3 C3     4.3999     5.6375     1.1839 C
4 C4     4.8666     2.8868     0.7745 C
5 C5     2.4733     2.3382     0.9805 C
6 C6     5.9999     3.8410     0.8047 C
7 C7     5.1202     1.4701     0.4601 C
8 C8     5.7773     5.1434     1.0062 C
9 C9     2.7080     1.0557     0.6008 C
10 C10     1.0943     2.7870     1.3130 C
11 C11     4.1025     0.6101     0.3262 C
12 O12     1.7237     0.0965     0.6648 O
13 Si13     4.4149    -1.1392    -0.2369 Si
14 C14     0.7725     3.3862     2.4803 C
15 C15     0.0660     2.6681     0.2494 C
16 C16    -0.5409     4.0686     2.6112 C
17 C17     1.6878     3.4252     3.6466 C
18 C18    -1.3925     4.1034     1.5749 C
19 C19    -0.8566     4.7521     3.8811 C
20 C20    -1.0781     3.3808     0.3207 C
21 Si21    -2.2886     3.4323    -1.1103 Si
22 O22     0.2841     1.7874    -0.7796 O
23 C23     1.3305     4.0619     4.7681 C
24 C24     0.0243     4.7462     4.8880 C
25 P25     0.3956     0.2357    -0.2813 P
26 O26     0.4586    -0.6403    -1.4936 O
27 N27    -0.8649     0.0404     0.7263 N
28 C28     6.2270    -1.5137    -0.4287 C
29 C29     3.6442    -2.2377     1.0504 C
30 C30     3.6765    -1.3833    -1.9262 C
31 C31    -3.6458     2.1800    -0.9001 C
32 C32    -3.1492     5.0832    -1.1777 C
33 C33    -1.3113     3.1467    -2.6747 C
34 C34     6.9509    -0.8532    -1.3486 C
35 C35     6.8739    -2.5765     0.3796 C
36 C36     2.6303    -3.0656     0.7519 C
37 C37     4.1243    -2.1501     2.4504 C
38 C38     3.6927    -2.5974    -2.5002 C
39 C39     3.1359    -0.2271    -2.6841 C
40 C40    -3.7699     1.4713     0.2337 C
41 C41    -4.6662     2.0331    -1.9661 C
42 C42    -2.8888     5.9776    -2.1473 C
43 C43    -4.1948     5.3914    -0.1707 C
44 C44    -1.5875     2.1273    -3.5056 C
45 C45    -0.1363     4.0105    -2.9515 C
46 C46     8.3863    -1.1552    -1.5254 C
47 C47     8.9684    -2.1022    -0.7808 C
48 C48     8.1740    -2.8507     0.2139 C
49 C49     2.0339    -3.9199     1.8001 C
50 C50     2.4831    -3.8501     3.0584 C
51 C51     3.5764    -2.9178     3.4004 C
52 C52     3.1177    -2.7910    -3.8477 C
53 C53     2.5949    -1.7526    -4.5099 C
54 C54     2.6139    -0.4065    -3.9038 C
55 C55    -4.8957     0.5272     0.3998 C
56 C56    -5.7962     0.3770    -0.5780 C
57 C57    -5.6772     1.1689    -1.8179 C
58 C58    -3.6034     7.2710    -2.1797 C
59 C59    -4.5288     7.5505    -1.2550 C
60 C60    -4.8435     6.5616    -0.2053 C
61 C61    -0.7543     1.8987    -4.7050 C
62 C62     0.2964     2.6884    -4.9538 C
63 C63     0.6248     3.7915    -4.0301 C
64 C64    -0.7553    -5.3107    -4.1187 C
65 C65    -1.8300    -4.8056    -3.3874 C
66 C66    -1.6394    -4.3170    -2.0841 C
67 C67    -0.3487    -4.3190    -1.5286 C
68 C68     0.7152    -4.8368    -2.2602 C
69 C69     0.5178    -5.3328    -3.5526 C
70 C70    -2.8350    -3.8552    -1.3475 C
71 N71    -2.8851    -3.9418     0.0248 N
72 S72    -4.4611    -4.0359     0.7086 S
73 O73    -5.2573    -2.8990     0.2220 O
74 O74    -4.9576    -5.3892     0.4559 O
75 C75    -4.0929    -3.7908     2.4600 C
76 C76    -4.8754    -2.8928     3.1770 C
77 C77    -4.5831    -2.7662     4.5339 C
78 C78    -3.5359    -3.5123     5.0717 C
79 C79    -2.8187    -4.3725     4.2373 C
80 N80    -3.1015    -4.5264     2.9391 N
81 N81    -1.8757    -1.4574    -2.5044 N
82 C82    -2.1014    -1.4382    -3.8140 C
83 C83    -3.4635    -1.7335    -4.0709 C
84 C84    -4.0564    -1.9408    -2.8406 C
85 C85    -3.0341    -1.8706    -1.8332 C
86 H86     2.3693     5.1785     1.2652 H
87 H87     4.2233     6.6972     1.3166 H
88 H88     7.0132     3.4875     0.6592 H
89 H89     6.1396     1.1538     0.2912 H
90 H90     6.6056     5.8400     1.0253 H
91 H91     2.6471     2.9244     3.6144 H
92 H92    -2.3298     4.6309     1.6720 H
93 H93    -1.8029     5.2651     4.0050 H
94 H94     2.0084     4.0751     5.6120 H
95 H95    -0.2207     5.2513     5.8135 H
96 H96     6.4957    -0.0905    -1.9688 H
97 H97     6.3039    -3.1474     1.0985 H
98 H98     2.2238    -3.1091    -0.2461 H
99 H99     4.9215    -1.4643     2.7094 H
100 H100     4.1150    -3.4496    -1.9820 H
101 H101     3.1514     0.7672    -2.2583 H
102 H102    -3.0705     1.5964     1.0487 H
103 H103    -4.5967     2.6242    -2.8708 H
104 H104    -2.1624     5.7760    -2.9196 H
105 H105    -4.4513     4.6647     0.5898 H
106 H106    -2.4024     1.4479    -3.3081 H
107 H107     0.1186     4.8150    -2.2727 H
108 H108     8.9646    -0.6089    -2.2592 H
109 H109    10.0195    -2.3258    -0.9097 H
110 H110     8.6446    -3.6273     0.8029 H
111 H111     1.2286    -4.5978     1.5485 H
112 H112     2.0427    -4.4703     3.8282 H
113 H113     3.9294    -2.8539     4.4214 H
114 H114     3.1176    -3.7759    -4.2954 H
115 H115     2.1680    -1.8943    -5.4942 H
116 H116     2.2104     0.4351    -4.4508 H
117 H117    -4.9934    -0.0403     1.3155 H
118 H118    -6.6186    -0.3163    -0.4584 H
119 H119    -6.4158     1.0570    -2.6009 H
120 H120    -3.3763     7.9913    -2.9551 H
121 H121    -5.0534     8.4969    -1.2787 H
122 H122    -5.6069     6.7817     0.5297 H
123 H123    -0.9941     1.0891    -5.3812 H
124 H124     0.9097     2.5180    -5.8292 H
125 H125     1.4838     4.4200    -4.2259 H
126 H126    -0.9178    -5.6969    -5.1203 H
127 H127    -2.8269    -4.8119    -3.8172 H
128 H128    -0.1801    -3.9181    -0.5358 H
129 H129     1.7070    -4.8598    -1.8217 H
130 H130     1.3556    -5.7371    -4.1125 H
131 H131    -3.7570    -4.2077    -1.7979 H
132 H132    -5.6437    -2.3104     2.6847 H
133 H133    -5.1515    -2.0806     5.1541 H
134 H134    -3.2687    -3.4270     6.1196 H
135 H135    -1.9889    -4.9606     4.6203 H
136 H136    -0.9555    -1.2085    -2.0601 H
137 H137    -1.3026    -1.2240    -4.5110 H
138 H138    -3.9240    -1.7807    -5.0471 H
139 H139    -5.0900    -2.1784    -2.6284 H
140 H140    -3.1929    -1.5136    -0.8237 H
141 S141    -1.2272    -1.1509     1.6703 S
142 O142    -0.7338    -2.4896     1.2320 O
143 C143    -0.3302    -0.8436     3.2859 C
144 O144    -2.6450    -1.0986     2.0532 O
145 F145     0.9883    -0.9970     3.1587 F
146 F146    -0.5796     0.4017     3.7118 F
147 F147    -0.7757    -1.7104     4.2089 F
148 H148    -2.1324    -3.5440     0.6110 H
@<TRIPOS>BOND
1 1 2 1
2 1 3 2
3 1 86 1
4 2 4 2
5 2 5 1
6 3 8 1
7 3 87 1
8 4 6 1
9 4 7 1
10 5 9 2
11 5 10 1
12 6 8 2
13 6 88 1
14 7 11 2
15 7 89 1
16 8 90 1
17 9 11 1
18 9 12 1
19 10 14 2
20 10 15 1
21 11 13 1
22 12 25 1
23 13 28 1
24 13 29 1
25 13 30 1
26 14 16 1
27 14 17 1
28 15 20 2
29 15 22 1
30 16 18 2
31 16 19 1
32 17 23 2
33 17 91 1
34 18 20 1
35 18 92 1
36 19 24 2
37 19 93 1
38 20 21 1
39 21 31 1
40 21 32 1
41 21 33 1
42 22 25 1
43 23 24 1
44 23 94 1
45 24 95 1
46 25 26 2
47 25 27 Ar
48 27 141 Ar
49 28 34 2
50 28 35 1
51 29 36 2
52 29 37 1
53 30 38 2
54 30 39 1
55 31 40 2
56 31 41 1
57 32 42 2
58 32 43 1
59 33 44 2
60 33 45 1
61 34 46 1
62 34 96 1
63 35 48 2
64 35 97 1
65 36 49 1
66 36 98 1
67 37 51 2
68 37 99 1
69 38 52 1
70 38 100 1
71 39 54 2
72 39 101 1
73 40 55 1
74 40 102 1
75 41 57 2
76 41 103 1
77 42 58 1
78 42 104 1
79 43 60 2
80 43 105 1
81 44 61 1
82 44 106 1
83 45 63 2
84 45 107 1
85 46 47 2
86 46 108 1
87 47 48 1
88 47 109 1
89 48 110 1
90 49 50 2
91 49 111 1
92 50 51 1
93 50 112 1
94 51 113 1
95 52 53 2
96 52 114 1
97 53 54 1
98 53 115 1
99 54 116 1
100 55 56 2
101 55 117 1
102 56 57 1
103 56 118 1
104 57 119 1
105 58 59 2
106 58 120 1
107 59 60 1
108 59 121 1
109 60 122 1
110 61 62 2
111 61 123 1
112 62 63 1
113 62 124 1
114 63 125 1
115 64 65 Ar
116 64 69 Ar
117 64 126 1
118 65 66 Ar
119 65 127 1
120 66 67 Ar
121 66 70 1
122 67 68 Ar
123 67 128 1
124 68 69 Ar
125 68 129 1
126 69 130 1
127 70 71 Ar
128 70 131 1
129 71 72 1
130 71 148 1
131 72 73 2
132 72 74 2
133 72 75 1
134 75 76 Ar
135 75 80 Ar
136 76 77 Ar
137 76 132 1
138 77 78 Ar
139 77 133 1
140 78 79 Ar
141 78 134 1
142 79 80 Ar
143 79 135 1
144 81 82 Ar
145 81 85 1
146 81 136 1
147 82 83 Ar
148 82 137 1
149 83 84 2
150 83 138 1
151 84 85 Ar
152 84 139 1
153 85 140 1
154 141 142 2
155 141 143 1
156 141 144 2
157 143 145 1
158 143 146 1
159 143 147 1
