# Title Card Required
# Created by GaussView 5.0.9
#

#
#

@<TRIPOS>MOLECULE
Molecule Name
148 159
SMALL
NO_CHARGES


@<TRIPOS>ATOM
1 C1     4.9463     3.8257     0.1726 C
2 C2     3.4579     3.8793     0.1197 C
3 C3     5.6478     4.8800     0.6043 C
4 C4     2.8301     4.9904     0.5633 C
5 C5     2.6468     2.7189    -0.3626 C
6 C6     3.6167     6.1545     1.0339 C
7 C7     1.3583     5.0378     0.6168 C
8 C8     4.9524     6.1027     1.0467 C
9 C9     1.2991     2.7375    -0.2235 C
10 C10     3.3106     1.5061    -0.9052 C
11 C11     0.6222     3.9796     0.2463 C
12 O12     0.5458     1.6648    -0.6424 O
13 Si13    -1.2314     4.0679     0.4286 Si
14 C14     4.1026     1.5299    -2.0015 C
15 C15     3.1063     0.2284    -0.1733 C
16 C16     4.8673     0.3133    -2.3771 C
17 C17     4.2585     2.7294    -2.8618 C
18 C18     4.7627    -0.8033    -1.6446 C
19 C19     5.7618     0.3734    -3.5499 C
20 C20     3.8406    -0.8592    -0.4881 C
21 Si21     3.7119    -2.4757     0.4377 Si
22 O22     2.1697     0.1872     0.8290 O
23 C23     5.0835     2.7074    -3.9155 C
24 C24     5.8611     1.4989    -4.2656 C
25 P25     0.6266     0.3166     0.3018 P
26 O26    -0.2666     0.3861     1.4965 O
27 N27     0.4703    -0.9187    -0.7468 N
28 C28    -1.6941     3.3744     2.0991 C
29 C29    -1.7544     5.8607     0.3179 C
30 C30    -2.0408     3.1381    -0.9700 C
31 C31     2.7889    -3.7172    -0.6013 C
32 C32     5.4516    -3.0693     0.7443 C
33 C33     2.8402    -2.2493     2.0703 C
34 C34    -2.9842     3.2549     2.4586 C
35 C35    -0.6338     3.0138     3.0734 C
36 C36    -2.5198     6.4317     1.2656 C
37 C37    -1.2768     6.6907    -0.8171 C
38 C38    -2.8583     2.0973    -0.7376 C
39 C39    -1.7891     3.5586    -2.3708 C
40 C40     2.4419    -4.9074    -0.0818 C
41 C41     2.4336    -3.4081    -2.0087 C
42 C42     6.3840    -2.2096     1.1909 C
43 C43     5.8406    -4.4723     0.4544 C
44 C44     3.4553    -1.6411     3.0993 C
45 C45     1.4274    -2.6749     2.2213 C
46 C46    -3.3416     2.7793     3.8107 C
47 C47    -2.3805     2.4754     4.6899 C
48 C48    -0.9611     2.5900     4.3002 C
49 C49    -2.9170     7.8507     1.1521 C
50 C50    -2.5020     8.5832     0.1132 C
51 C51    -1.6345     7.9768    -0.9146 C
52 C52    -3.5498     1.4300    -1.8583 C
53 C53    -3.3563     1.8450    -3.1140 C
54 C54    -2.4223     2.9544    -3.3838 C
55 C55     1.7181    -5.8982    -0.9043 C
56 C56     1.4103    -5.6175    -2.1755 C
57 C57     1.7888    -4.3135    -2.7552 C
58 C58     7.7707    -2.6641     1.4215 C
59 C59     8.1101    -3.9336     1.1728 C
60 C60     7.0990    -4.8801     0.6617 C
61 C61     2.7426    -1.4319     4.3768 C
62 C62     1.4750    -1.8359     4.5112 C
63 C63     0.7852    -2.4831     3.3792 C
64 C64    -1.2362    -4.9802     1.8017 C
65 C65    -2.1214    -4.0496     1.2668 C
66 C66    -3.1893    -3.5669     2.0453 C
67 C67    -3.3316    -4.0213     3.3700 C
68 C68    -2.4344    -4.9443     3.9008 C
69 C69    -1.3857    -5.4280     3.1163 C
70 C70    -4.2401    -2.7094     1.4754 C
71 N71    -4.2797    -2.4855     0.1250 N
72 S72    -5.7812    -2.0264    -0.5573 S
73 O73    -6.7543    -3.0244    -0.1107 O
74 O74    -6.0569    -0.6056    -0.2927 O
75 C75    -5.3816    -2.1969    -2.3169 C
76 C76    -5.7901    -1.1900    -3.1869 C
77 C77    -5.4851    -1.3728    -4.5361 C
78 C78    -4.7990    -2.5220    -4.9231 C
79 C79    -4.4461    -3.4597    -3.9487 C
80 N80    -4.7444    -3.3083    -2.6545 N
81 N81    -2.6068    -0.5307     2.4403 N
82 C82    -2.2675    -0.6401     3.7253 C
83 C83    -3.4262    -0.8590     4.5019 C
84 C84    -4.4949    -0.8679     3.6199 C
85 C85    -3.9779    -0.7424     2.2948 C
86 H86     5.4807     2.9323    -0.1197 H
87 H87     6.7286     4.8345     0.6412 H
88 H88     3.1124     7.0515     1.3716 H
89 H89     0.8849     5.9327     1.0004 H
90 H90     5.5262     6.9529     1.3921 H
91 H91     3.6985     3.6335    -2.6602 H
92 H92     5.3344    -1.6841    -1.9131 H
93 H93     6.3440    -0.4938    -3.8383 H
94 H94     5.1827     3.5912    -4.5326 H
95 H95     6.5202     1.5287    -5.1238 H
96 H96    -3.7777     3.5297     1.7748 H
97 H97     0.4111     3.0921     2.8053 H
98 H98    -2.8602     5.8782     2.1265 H
99 H99    -0.6036     6.2769    -1.5536 H
100 H100    -3.0333     1.7289     0.2617 H
101 H101    -1.0798     4.3417    -2.5898 H
102 H102     2.6863    -5.1567     0.9435 H
103 H103     2.6845    -2.4517    -2.4446 H
104 H104     6.1419    -1.1701     1.3715 H
105 H105     5.1199    -5.1786     0.0703 H
106 H106     4.4715    -1.2869     3.0134 H
107 H107     0.8952    -3.1103     1.3879 H
108 H108    -4.3829     2.6843     4.0899 H
109 H109    -2.6405     2.1287     5.6816 H
110 H110    -0.1864     2.3265     5.0085 H
111 H111    -3.5454     8.2954     1.9130 H
112 H112    -2.7912     9.6228     0.0299 H
113 H113    -1.2743     8.5800    -1.7380 H
114 H114    -4.2102     0.6019    -1.6581 H
115 H115    -3.8620     1.3523    -3.9343 H
116 H116    -2.2347     3.2632    -4.4040 H
117 H117     1.4383    -6.8516    -0.4753 H
118 H118     0.8797    -6.3420    -2.7795 H
119 H119     1.5295    -4.0860    -3.7810 H
120 H120     8.5112    -1.9659     1.7898 H
121 H121     9.1258    -4.2681     1.3399 H
122 H122     7.3800    -5.9038     0.4505 H
123 H123     3.2487    -0.9481     5.2021 H
124 H124     0.9492    -1.6797     5.4442 H
125 H125    -0.2477    -2.7827     3.4837 H
126 H126    -0.4275    -5.3535     1.1825 H
127 H127    -1.9895    -3.7397     0.2374 H
128 H128    -4.1596    -3.6649     3.9730 H
129 H129    -2.5608    -5.2932     4.9209 H
130 H130    -0.6895    -6.1536     3.5262 H
131 H131    -5.2255    -2.8533     1.9086 H
132 H132    -6.2985    -0.3081    -2.8171 H
133 H133    -5.7698    -0.6227    -5.2670 H
134 H134    -4.5325    -2.6921    -5.9607 H
135 H135    -3.9045    -4.3640    -4.2128 H
136 H136    -1.9040    -0.2792     1.7238 H
137 H137    -1.2363    -0.5277     4.0256 H
138 H138    -3.4491    -0.9865     5.5744 H
139 H139    -5.5426    -0.9935     3.8592 H
140 H140    -4.4943    -0.2881     1.4589 H
141 S141    -0.8195    -1.5584    -1.3384 S
142 O142    -2.1044    -1.0605    -0.7459 O
143 C143    -0.8588    -0.9307    -3.0978 C
144 O144    -0.7358    -3.0176    -1.4915 O
145 F145    -2.0501    -1.2112    -3.6558 F
146 F146    -0.6682     0.3898    -3.1306 F
147 F147     0.0978    -1.5219    -3.8197 F
148 H148    -3.4360    -2.0942    -0.3457 H
@<TRIPOS>BOND
1 1 2 1
2 1 3 2
3 1 86 1
4 2 4 2
5 2 5 1
6 3 8 1
7 3 87 1
8 4 6 1
9 4 7 1
10 5 9 2
11 5 10 1
12 6 8 2
13 6 88 1
14 7 11 2
15 7 89 1
16 8 90 1
17 9 11 1
18 9 12 1
19 10 14 2
20 10 15 1
21 11 13 1
22 12 25 1
23 13 28 1
24 13 29 1
25 13 30 1
26 14 16 1
27 14 17 1
28 15 20 2
29 15 22 1
30 16 18 2
31 16 19 1
32 17 23 2
33 17 91 1
34 18 20 1
35 18 92 1
36 19 24 2
37 19 93 1
38 20 21 1
39 21 31 1
40 21 32 1
41 21 33 1
42 22 25 1
43 23 24 1
44 23 94 1
45 24 95 1
46 25 26 2
47 25 27 Ar
48 27 141 Ar
49 28 34 2
50 28 35 1
51 29 36 2
52 29 37 1
53 30 38 2
54 30 39 1
55 31 40 2
56 31 41 1
57 32 42 2
58 32 43 1
59 33 44 2
60 33 45 1
61 34 46 1
62 34 96 1
63 35 48 2
64 35 97 1
65 36 49 1
66 36 98 1
67 37 51 2
68 37 99 1
69 38 52 1
70 38 100 1
71 39 54 2
72 39 101 1
73 40 55 1
74 40 102 1
75 41 57 2
76 41 103 1
77 42 58 1
78 42 104 1
79 43 60 2
80 43 105 1
81 44 61 1
82 44 106 1
83 45 63 2
84 45 107 1
85 46 47 2
86 46 108 1
87 47 48 1
88 47 109 1
89 48 110 1
90 49 50 2
91 49 111 1
92 50 51 1
93 50 112 1
94 51 113 1
95 52 53 2
96 52 114 1
97 53 54 1
98 53 115 1
99 54 116 1
100 55 56 2
101 55 117 1
102 56 57 1
103 56 118 1
104 57 119 1
105 58 59 2
106 58 120 1
107 59 60 1
108 59 121 1
109 60 122 1
110 61 62 2
111 61 123 1
112 62 63 1
113 62 124 1
114 63 125 1
115 64 65 Ar
116 64 69 Ar
117 64 126 1
118 65 66 Ar
119 65 127 1
120 66 67 Ar
121 66 70 1
122 67 68 Ar
123 67 128 1
124 68 69 Ar
125 68 129 1
126 69 130 1
127 70 71 Ar
128 70 131 1
129 71 72 1
130 71 148 1
131 72 73 2
132 72 74 2
133 72 75 1
134 75 76 Ar
135 75 80 Ar
136 76 77 Ar
137 76 132 1
138 77 78 Ar
139 77 133 1
140 78 79 Ar
141 78 134 1
142 79 80 Ar
143 79 135 1
144 81 82 Ar
145 81 85 1
146 81 136 1
147 82 83 Ar
148 82 137 1
149 83 84 2
150 83 138 1
151 84 85 Ar
152 84 139 1
153 85 140 1
154 141 142 2
155 141 143 1
156 141 144 2
157 143 145 1
158 143 146 1
159 143 147 1
