# Title Card Required
# Created by GaussView 5.0.9
#

#
#

@<TRIPOS>MOLECULE
Molecule Name
148 159
SMALL
NO_CHARGES


@<TRIPOS>ATOM
1 C1    -1.7971     5.6396    -1.7996 C
2 C2    -0.5562     4.8993    -1.4437 C
3 C3    -1.7315     6.7493    -2.5444 C
4 C4     0.6305     5.3425    -1.9117 C
5 C5    -0.6006     3.6595    -0.6137 C
6 C6     0.6932     6.5748    -2.7314 C
7 C7     1.8690     4.6073    -1.5940 C
8 C8    -0.4274     7.2423    -3.0276 C
9 C9     0.5068     2.8945    -0.4937 C
10 C10    -1.8303     3.2795     0.1222 C
11 C11     1.8241     3.4576    -0.9024 C
12 O12     0.4536     1.6984     0.1854 O
13 Si13     3.4141     2.6118    -0.4219 Si
14 C14    -2.3758     4.0792     1.0704 C
15 C15    -2.4465     1.9569    -0.1729 C
16 C16    -3.6530     3.6852     1.7140 C
17 C17    -1.7439     5.3432     1.5313 C
18 C18    -4.2461     2.5336     1.3831 C
19 C19    -4.2546     4.5894     2.7141 C
20 C20    -3.6261     1.6237     0.3943 C
21 Si21    -4.5024     0.0081     0.0811 Si
22 O22    -1.8262     1.1195    -1.0673 O
23 C23    -2.3418     6.1076     2.4529 C
24 C24    -3.6378     5.7262     3.0530 C
25 P25    -0.3952     0.4964    -0.5675 P
26 O26     0.3103    -0.0747    -1.7497 O
27 N27    -0.8267    -0.4747     0.6658 N
28 C28     3.5223     1.0701    -1.4452 C
29 C29     4.8694     3.7125    -0.7784 C
30 C30     3.5147     2.2902     1.4079 C
31 C31    -4.2138    -1.1257     1.5364 C
32 C32    -6.3202     0.4074    -0.0586 C
33 C33    -3.9481    -0.7858    -1.5126 C
34 C34     3.7282    -0.1362    -0.8940 C
35 C35     3.4241     1.1942    -2.9198 C
36 C36     5.8532     3.3362    -1.6130 C
37 C37     4.9595     5.0216    -0.0878 C
38 C38     2.5841     2.7595     2.2572 C
39 C39     4.7024     1.5858     1.9492 C
40 C40    -3.5199    -0.7120     2.6119 C
41 C41    -4.7712    -2.5009     1.5201 C
42 C42    -6.7264     1.4136    -0.8529 C
43 C43    -7.3292    -0.3303     0.7433 C
44 C44    -3.3263    -1.9768    -1.5154 C
45 C45    -4.2014    -0.1000    -2.8042 C
46 C46     3.9263    -1.3158    -1.7587 C
47 C47     3.8687    -1.1947    -3.0902 C
48 C48     3.5887     0.1193    -3.6988 C
49 C49     7.0028     4.2326    -1.8570 C
50 C50     7.0735     5.4176    -1.2391 C
51 C51     6.0028     5.8302    -0.3094 C
52 C52     2.7139     2.5193     3.7097 C
53 C53     3.7744     1.8585     4.1886 C
54 C54     4.8223     1.3784     3.2659 C
55 C55    -3.3257    -1.6133     3.7665 C
56 C56    -3.8349    -2.8501     3.7455 C
57 C57    -4.5933    -3.3150     2.5675 C
58 C58    -8.1607     1.7515    -0.9596 C
59 C59    -9.0650     1.0680    -0.2502 C
60 C60    -8.6279    -0.0191     0.6470 C
61 C61    -2.9661    -2.6262    -2.7919 C
62 C62    -3.2265    -2.0168    -3.9533 C
63 C63    -3.8619    -0.6856    -3.9588 C
64 C64    -2.4947    -5.2402    -0.2057 C
65 C65    -1.1335    -4.9535    -0.1503 C
66 C66    -0.2724    -5.4514    -1.1440 C
67 C67    -0.8093    -6.2168    -2.1983 C
68 C68    -2.1690    -6.4960    -2.2469 C
69 C69    -3.0164    -6.0090    -1.2465 C
70 C70     1.1823    -5.3206    -1.0573 C
71 N71     1.7914    -4.8028     0.0367 N
72 S72     3.4419    -5.2380     0.3386 S
73 O73     3.4425    -6.5774     0.9166 O
74 O74     4.2055    -4.9880    -0.8934 O
75 C75     3.9059    -3.9961     1.5699 C
76 C76     4.9911    -3.1654     1.3094 C
77 C77     5.3315    -2.2587     2.3150 C
78 C78     4.5885    -2.2481     3.4924 C
79 C79     3.5270    -3.1468     3.6340 C
80 N80     3.1851    -4.0185     2.6810 N
81 N81     1.0803    -2.7252    -2.4885 N
82 C82     0.2347    -2.5147    -3.5048 C
83 C83     0.3841    -3.5498    -4.4463 C
84 C84     1.3854    -4.3882    -3.9642 C
85 C85     1.7988    -3.9007    -2.7002 C
86 H86    -2.7648     5.2854    -1.4693 H
87 H87    -2.6364     7.2851    -2.8007 H
88 H88     1.6462     6.9395    -3.0940 H
89 H89     2.8122     5.0184    -1.9278 H
90 H90    -0.3814     8.1422    -3.6272 H
91 H91    -0.7827     5.6587     1.1481 H
92 H92    -5.1786     2.2511     1.8581 H
93 H93    -5.1993     4.3373     3.1812 H
94 H94    -1.8640     7.0234     2.7768 H
95 H95    -4.0889     6.3792     3.7891 H
96 H96     3.7802    -0.2651     0.1771 H
97 H97     3.2293     2.1583    -3.3731 H
98 H98     5.8314     2.3772    -2.1111 H
99 H99     4.1788     5.3298     0.5967 H
100 H100     1.7379     3.3313     1.9046 H
101 H101     5.4813     1.2393     1.2813 H
102 H102    -3.0906     0.2787     2.6582 H
103 H103    -5.3264    -2.8522     0.6592 H
104 H104    -6.0139     2.0110    -1.4045 H
105 H105    -7.0329    -1.1155     1.4212 H
106 H106    -3.0794    -2.4804    -0.5937 H
107 H107    -4.6459     0.8833    -2.8264 H
108 H108     4.1199    -2.2783    -1.3123 H
109 H109     4.0154    -2.0606    -3.7226 H
110 H110     3.5227     0.2117    -4.7751 H
111 H111     7.7885     3.9265    -2.5356 H
112 H112     7.9155     6.0741    -1.4165 H
113 H113     6.0654     6.7866     0.1932 H
114 H114     1.9481     2.8792     4.3845 H
115 H115     3.8701     1.6808     5.2518 H
116 H116     5.6896     0.8632     3.6577 H
117 H117    -2.7644    -1.2714     4.6265 H
118 H118    -3.6897    -3.5126     4.5889 H
119 H119    -5.0015    -4.3173     2.5518 H
120 H120    -8.4766     2.5562    -1.6108 H
121 H121   -10.1159     1.3154    -0.3254 H
122 H122    -9.3605    -0.5582     1.2338 H
123 H123    -2.4809    -3.5918    -2.7871 H
124 H124    -2.9548    -2.4895    -4.8882 H
125 H125    -4.0451    -0.1813    -4.8987 H
126 H126    -3.1429    -4.8588     0.5746 H
127 H127    -0.7619    -4.3698     0.6830 H
128 H128    -0.1510    -6.5948    -2.9741 H
129 H129    -2.5688    -7.0940    -3.0598 H
130 H130    -4.0793    -6.2287    -1.2806 H
131 H131     1.7525    -6.0961    -1.5599 H
132 H132     5.5338    -3.2305     0.3750 H
133 H133     6.1608    -1.5730     2.1744 H
134 H134     4.8206    -1.5574     4.2956 H
135 H135     2.9261    -3.1631     4.5370 H
136 H136     1.1357    -2.0815    -1.6972 H
137 H137    -0.3951    -1.6381    -3.4923 H
138 H138    -0.1749    -3.6467    -5.3657 H
139 H139     1.7931    -5.2653    -4.4492 H
140 H140     2.7819    -4.0264    -2.2709 H
141 S141    -0.0444    -1.6099     1.3772 S
142 O142     1.0946    -2.2069     0.5950 O
143 C143     0.8189    -0.7727     2.8199 C
144 O144    -0.9313    -2.5906     2.0171 O
145 F145     0.0919     0.2482     3.2770 F
146 F146     0.9932    -1.6495     3.8226 F
147 F147     2.0202    -0.3205     2.4401 F
148 H148     1.4425    -3.9278     0.4834 H
@<TRIPOS>BOND
1 1 2 1
2 1 3 2
3 1 86 1
4 2 4 2
5 2 5 1
6 3 8 1
7 3 87 1
8 4 6 1
9 4 7 1
10 5 9 2
11 5 10 1
12 6 8 2
13 6 88 1
14 7 11 2
15 7 89 1
16 8 90 1
17 9 11 1
18 9 12 1
19 10 14 2
20 10 15 1
21 11 13 1
22 12 25 1
23 13 28 1
24 13 29 1
25 13 30 1
26 14 16 1
27 14 17 1
28 15 20 2
29 15 22 1
30 16 18 2
31 16 19 1
32 17 23 2
33 17 91 1
34 18 20 1
35 18 92 1
36 19 24 2
37 19 93 1
38 20 21 1
39 21 31 1
40 21 32 1
41 21 33 1
42 22 25 1
43 23 24 1
44 23 94 1
45 24 95 1
46 25 26 2
47 25 27 Ar
48 27 141 Ar
49 28 34 2
50 28 35 1
51 29 36 2
52 29 37 1
53 30 38 2
54 30 39 1
55 31 40 2
56 31 41 1
57 32 42 2
58 32 43 1
59 33 44 2
60 33 45 1
61 34 46 1
62 34 96 1
63 35 48 2
64 35 97 1
65 36 49 1
66 36 98 1
67 37 51 2
68 37 99 1
69 38 52 1
70 38 100 1
71 39 54 2
72 39 101 1
73 40 55 1
74 40 102 1
75 41 57 2
76 41 103 1
77 42 58 1
78 42 104 1
79 43 60 2
80 43 105 1
81 44 61 1
82 44 106 1
83 45 63 2
84 45 107 1
85 46 47 2
86 46 108 1
87 47 48 1
88 47 109 1
89 48 110 1
90 49 50 2
91 49 111 1
92 50 51 1
93 50 112 1
94 51 113 1
95 52 53 2
96 52 114 1
97 53 54 1
98 53 115 1
99 54 116 1
100 55 56 2
101 55 117 1
102 56 57 1
103 56 118 1
104 57 119 1
105 58 59 2
106 58 120 1
107 59 60 1
108 59 121 1
109 60 122 1
110 61 62 2
111 61 123 1
112 62 63 1
113 62 124 1
114 63 125 1
115 64 65 Ar
116 64 69 Ar
117 64 126 1
118 65 66 Ar
119 65 127 1
120 66 67 Ar
121 66 70 1
122 67 68 Ar
123 67 128 1
124 68 69 Ar
125 68 129 1
126 69 130 1
127 70 71 Ar
128 70 131 1
129 71 72 1
130 71 148 1
131 72 73 2
132 72 74 2
133 72 75 1
134 75 76 Ar
135 75 80 Ar
136 76 77 Ar
137 76 132 1
138 77 78 Ar
139 77 133 1
140 78 79 Ar
141 78 134 1
142 79 80 Ar
143 79 135 1
144 81 82 Ar
145 81 85 1
146 81 136 1
147 82 83 Ar
148 82 137 1
149 83 84 Ar
150 83 138 1
151 84 85 Ar
152 84 139 1
153 85 140 1
154 141 142 Ar
155 141 143 1
156 141 144 2
157 143 145 1
158 143 146 1
159 143 147 1
