# Title Card Required
# Created by GaussView 5.0.9
#

#
#

@<TRIPOS>MOLECULE
Molecule Name
148 159
SMALL
NO_CHARGES


@<TRIPOS>ATOM
1 C1    -5.5394     1.9283     1.2844 C
2 C2    -4.1847     2.5064     1.0504 C
3 C3    -6.6194     2.7174     1.3115 C
4 C4    -4.0797     3.8317     0.8029 C
5 C5    -2.9523     1.6524     1.0454 C
6 C6    -5.2816     4.6973     0.8424 C
7 C7    -2.7806     4.4148     0.4268 C
8 C8    -6.4834     4.1686     1.0919 C
9 C9    -1.7770     2.1865     0.6198 C
10 C10    -3.0451     0.2137     1.4155 C
11 C11    -1.7018     3.6355     0.2850 C
12 O12    -0.5947     1.4854     0.6769 O
13 Si13    -0.1107     4.3423    -0.3822 Si
14 C14    -3.5348    -0.2187     2.5986 C
15 C15    -2.7063    -0.7790     0.3655 C
16 C16    -3.8933    -1.6530     2.7600 C
17 C17    -3.7687     0.6832     3.7521 C
18 C18    -3.7513    -2.5059     1.7336 C
19 C19    -4.4628    -2.0964     4.0475 C
20 C20    -3.1446    -2.0488     0.4633 C
21 Si21    -2.9699    -3.2450    -0.9590 Si
22 O22    -1.8840    -0.3996    -0.6654 O
23 C23    -4.2870     0.2074     4.8905 C
24 C24    -4.6456    -1.2201     5.0420 C
25 P25    -0.4131     0.0854    -0.1438 P
26 O26     0.4650     0.2651    -1.3510 O
27 N27     0.0287    -1.0158     0.9594 N
28 C28    -0.2291     6.1722    -0.6934 C
29 C29     1.2014     3.9538     0.8779 C
30 C30     0.2521     3.5815    -2.0403 C
31 C31    -1.3137    -4.0985    -0.9044 C
32 C32    -4.3365    -4.5083    -0.8585 C
33 C33    -3.1665    -2.2542    -2.5296 C
34 C34     0.5711     7.0481    -0.0620 C
35 C35    -1.1921     6.6660    -1.7076 C
36 C36     2.2400     3.1545     0.5850 C
37 C37     1.0636     4.4945     2.2514 C
38 C38     1.3887     3.8882    -2.6869 C
39 C39    -0.7379     2.6885    -2.6931 C
40 C40    -0.5502    -4.0534     0.1993 C
41 C41    -0.8457    -4.8758    -2.0792 C
42 C42    -4.0868    -5.8202    -1.0138 C
43 C43    -5.7234    -4.0642    -0.5710 C
44 C44    -4.3282    -1.6323    -2.7957 C
45 C45    -2.0190    -2.0614    -3.4510 C
46 C46     0.4659     8.4936    -0.3523 C
47 C47    -0.4158     8.9344    -1.2572 C
48 C48    -1.2827     7.9753    -1.9707 C
49 C49     3.2596     2.8526     1.6119 C
50 C50     3.1410     3.3599     2.8442 C
51 C51     1.9868     4.2179     3.1807 C
52 C52     1.6768     3.2930    -4.0085 C
53 C53     0.7981     2.4580    -4.5746 C
54 C54    -0.4726     2.1498    -3.8894 C
55 C55     0.7632    -4.7318     0.2238 C
56 C56     1.1945    -5.4002    -0.8516 C
57 C57     0.3487    -5.4790    -2.0582 C
58 C58    -5.1868    -6.8038    -0.9294 C
59 C59    -6.4367    -6.3941    -0.6856 C
60 C60    -6.7166    -4.9579    -0.4916 C
61 C61    -4.4725    -0.8034    -4.0104 C
62 C62    -3.4392    -0.6520    -4.8457 C
63 C63    -2.1513    -1.3081    -4.5493 C
64 C64     5.5152     0.8038    -4.2906 C
65 C65     5.3454    -0.3777    -3.5674 C
66 C66     4.7702    -0.3548    -2.2921 C
67 C67     4.3686     0.8692    -1.7459 C
68 C68     4.5503     2.0505    -2.4633 C
69 C69     5.1198     2.0214    -3.7374 C
70 C70     4.5953    -1.6572    -1.5298 C
71 N71     4.7513    -1.4916    -0.0955 N
72 S72     5.2678    -2.8981     0.7098 S
73 O73     4.1548    -3.8614     0.8183 O
74 O74     6.5089    -3.3290     0.0616 O
75 C75     5.5748    -2.2081     2.3597 C
76 C76     4.5995    -2.3719     3.3397 C
77 C77     4.8612    -1.7859     4.5800 C
78 C78     6.0612    -1.1036     4.7653 C
79 C79     6.9622    -1.0203     3.6993 C
80 N80     6.7248    -1.5603     2.5003 N
81 N81     2.1164    -1.4976    -2.2050 N
82 C82     1.6868    -1.6684    -3.4208 C
83 C83     2.4102    -2.7245    -4.0834 C
84 C84     3.3180    -3.1834    -3.1886 C
85 C85     3.2222    -2.4035    -1.9237 C
86 H86    -5.6758     0.8637     1.4139 H
87 H87    -7.5996     2.2903     1.4803 H
88 H88    -5.1916     5.7619     0.6650 H
89 H89    -2.7315     5.4732     0.2131 H
90 H90    -7.3610     4.8016     1.1181 H
91 H91    -3.5061     1.7320     3.6962 H
92 H92    -4.0410    -3.5436     1.8452 H
93 H93    -4.7396    -3.1336     4.1943 H
94 H94    -4.4450     0.8787     5.7248 H
95 H95    -5.0646    -1.5592     5.9807 H
96 H96     1.3084     6.7190     0.6559 H
97 H97    -1.8273     5.9682    -2.2392 H
98 H98     2.3389     2.7086    -0.3925 H
99 H99     0.2154     5.1172     2.5075 H
100 H100     2.1111     4.5643    -2.2463 H
101 H101    -1.6797     2.4632    -2.2119 H
102 H102    -0.8851    -3.5349     1.0871 H
103 H103    -1.4675    -4.9543    -2.9622 H
104 H104    -3.0882    -6.1837    -1.2064 H
105 H105    -5.9386    -3.0191    -0.3943 H
106 H106    -5.1695    -1.7098    -2.1237 H
107 H107    -1.0587    -2.5000    -3.2319 H
108 H108     1.1063     9.1942     0.1678 H
109 H109    -0.4925     9.9926    -1.4712 H
110 H110    -1.9883     8.3337    -2.7090 H
111 H111     4.1001     2.2165     1.3670 H
112 H112     3.8840     3.1353     3.5985 H
113 H113     1.8858     4.6155     4.1822 H
114 H114     2.6019     3.5327    -4.5160 H
115 H115     1.0103     2.0173    -5.5401 H
116 H116    -1.1927     1.4953    -4.3615 H
117 H117     1.3758    -4.6884     1.1140 H
118 H118     2.1589    -5.8912    -0.8363 H
119 H119     0.6922    -6.0349    -2.9209 H
120 H120    -4.9778    -7.8569    -1.0663 H
121 H121    -7.2427    -7.1137    -0.6229 H
122 H122    -7.7252    -4.6313    -0.2733 H
123 H123    -5.4155    -0.3149    -4.2193 H
124 H124    -3.5412    -0.0410    -5.7332 H
125 H125    -1.3097    -1.1638    -5.2144 H
126 H126     5.9702     0.7725    -5.2762 H
127 H127     5.6797    -1.3209    -3.9927 H
128 H128     3.9261     0.9003    -0.7569 H
129 H129     4.2501     2.9962    -2.0237 H
130 H130     5.2605     2.9440    -4.2926 H
131 H131     5.3888    -2.3425    -1.8405 H
132 H132     3.6732    -2.8921     3.1280 H
133 H133     4.1299    -1.8575     5.3785 H
134 H134     6.2999    -0.6351     5.7147 H
135 H135     7.9075    -0.4940     3.8095 H
136 H136     1.6178    -0.7730    -1.5987 H
137 H137     0.8795    -1.0522    -3.7979 H
138 H138     2.2301    -3.0651    -5.0931 H
139 H139     4.0330    -3.9845    -3.3282 H
140 H140     2.9755    -3.0509    -1.0704 H
141 S141     1.3040    -1.0296     1.8750 S
142 O142     2.4832    -0.3345     1.2833 O
143 C143     0.8849    -0.0055     3.3877 C
144 O144     1.5264    -2.3634     2.4420 O
145 F145     0.7550     1.2901     3.1018 F
146 F146    -0.2615    -0.4447     3.9228 F
147 F147     1.8645    -0.1470     4.2948 F
148 H148     3.9453    -1.0822     0.4002 H
@<TRIPOS>BOND
1 1 2 1
2 1 3 2
3 1 86 1
4 2 4 2
5 2 5 1
6 3 8 1
7 3 87 1
8 4 6 1
9 4 7 1
10 5 9 2
11 5 10 1
12 6 8 2
13 6 88 1
14 7 11 2
15 7 89 1
16 8 90 1
17 9 11 1
18 9 12 1
19 10 14 2
20 10 15 1
21 11 13 1
22 12 25 1
23 13 28 1
24 13 29 1
25 13 30 1
26 14 16 1
27 14 17 1
28 15 20 2
29 15 22 1
30 16 18 2
31 16 19 1
32 17 23 2
33 17 91 1
34 18 20 1
35 18 92 1
36 19 24 2
37 19 93 1
38 20 21 1
39 21 31 1
40 21 32 1
41 21 33 1
42 22 25 1
43 23 24 1
44 23 94 1
45 24 95 1
46 25 26 2
47 25 27 Ar
48 27 141 Ar
49 28 34 2
50 28 35 1
51 29 36 2
52 29 37 1
53 30 38 2
54 30 39 1
55 31 40 2
56 31 41 1
57 32 42 2
58 32 43 1
59 33 44 2
60 33 45 1
61 34 46 1
62 34 96 1
63 35 48 2
64 35 97 1
65 36 49 1
66 36 98 1
67 37 51 2
68 37 99 1
69 38 52 1
70 38 100 1
71 39 54 2
72 39 101 1
73 40 55 1
74 40 102 1
75 41 57 2
76 41 103 1
77 42 58 1
78 42 104 1
79 43 60 2
80 43 105 1
81 44 61 1
82 44 106 1
83 45 63 2
84 45 107 1
85 46 47 2
86 46 108 1
87 47 48 1
88 47 109 1
89 48 110 1
90 49 50 2
91 49 111 1
92 50 51 1
93 50 112 1
94 51 113 1
95 52 53 2
96 52 114 1
97 53 54 1
98 53 115 1
99 54 116 1
100 55 56 2
101 55 117 1
102 56 57 1
103 56 118 1
104 57 119 1
105 58 59 2
106 58 120 1
107 59 60 1
108 59 121 1
109 60 122 1
110 61 62 2
111 61 123 1
112 62 63 1
113 62 124 1
114 63 125 1
115 64 65 Ar
116 64 69 Ar
117 64 126 1
118 65 66 Ar
119 65 127 1
120 66 67 Ar
121 66 70 1
122 67 68 Ar
123 67 128 1
124 68 69 Ar
125 68 129 1
126 69 130 1
127 70 71 1
128 70 85 1
129 70 131 1
130 71 72 1
131 71 148 1
132 72 73 2
133 72 74 2
134 72 75 1
135 75 76 Ar
136 75 80 Ar
137 76 77 Ar
138 76 132 1
139 77 78 Ar
140 77 133 1
141 78 79 Ar
142 78 134 1
143 79 80 Ar
144 79 135 1
145 81 82 2
146 81 85 1
147 82 83 Ar
148 82 137 1
149 83 84 2
150 83 138 1
151 84 85 1
152 84 139 1
153 85 140 1
154 141 142 2
155 141 143 1
156 141 144 2
157 143 145 1
158 143 146 1
159 143 147 1
