# Title Card Required
# Created by GaussView 5.0.9
#

#
#

@<TRIPOS>MOLECULE
Molecule Name
148 159
SMALL
NO_CHARGES


@<TRIPOS>ATOM
1 C1     0.1545    -5.9788    -1.0915 C
2 C2    -0.8446    -4.8819    -0.9695 C
3 C3    -0.1768    -7.1322    -1.6835 C
4 C4    -2.0757    -5.0544    -1.4974 C
5 C5    -0.5007    -3.5825    -0.3195 C
6 C6    -2.4345    -6.3373    -2.1457 C
7 C7    -3.0737    -3.9724    -1.4095 C
8 C8    -1.5339    -7.3224    -2.2300 C
9 C9    -1.3540    -2.5378    -0.4215 C
10 C10     0.7631    -3.4281     0.4411 C
11 C11    -2.7518    -2.7854    -0.8716 C
12 O12    -1.0165    -1.3057     0.0883 O
13 Si13    -4.0810    -1.4998    -0.6144 Si
14 C14     1.0474    -4.1725     1.5348 C
15 C15     1.7428    -2.4208    -0.0379 C
16 C16     2.3876    -4.0648     2.1643 C
17 C17     0.0725    -5.1035     2.1577 C
18 C18     3.3051    -3.2319     1.6579 C
19 C19     2.6906    -4.9095     3.3363 C
20 C20     2.9797    -2.3724     0.4980 C
21 Si21     4.3209    -1.2360    -0.1243 Si
22 O22     1.3772    -1.5800    -1.0567 O
23 C23     0.4155    -5.8320     3.2267 C
24 C24     1.7632    -5.7380     3.8284 C
25 P25     0.2119    -0.5055    -0.6617 P
26 O26    -0.2115     0.1611    -1.9356 O
27 N27     0.8872     0.4185     0.4982 N
28 C28    -3.7103    -0.0569    -1.7227 C
29 C29    -5.7467    -2.2047    -1.0507 C
30 C30    -4.2313    -1.0185     1.1784 C
31 C31     4.5993     0.1345     1.1081 C
32 C32     5.8524    -2.2862    -0.2931 C
33 C33     3.8787    -0.4938    -1.7772 C
34 C34    -3.7862     1.2106    -1.2839 C
35 C35    -3.4288    -0.3179    -3.1547 C
36 C36    -6.4954    -1.6887    -2.0405 C
37 C37    -6.2719    -3.3413    -0.2559 C
38 C38    -5.1907    -0.1572     1.5580 C
39 C39    -3.3737    -1.6490     2.2130 C
40 C40     3.8826     0.2104     2.2426 C
41 C41     5.6105     1.1796     0.8173 C
42 C42     5.7814    -3.4743    -0.9190 C
43 C43     7.1400    -1.8671     0.3158 C
44 C44     3.4676     0.7824    -1.8600 C
45 C45     3.8984    -1.3274    -3.0048 C
46 C46    -3.6702     2.3313    -2.2382 C
47 C47    -3.4469     2.0897    -3.5352 C
48 C48    -3.3001     0.7010    -4.0124 C
49 C49    -7.8217    -2.2652    -2.3458 C
50 C50    -8.2864    -3.2968    -1.6311 C
51 C51    -7.4742    -3.8597    -0.5337 C
52 C52    -5.3521     0.2005     2.9816 C
53 C53    -4.5524    -0.3448     3.9048 C
54 C54    -3.5212    -1.3210     3.5024 C
55 C55     4.1191     1.3116     3.1999 C
56 C56     5.0432     2.2424     2.9379 C
57 C57     5.8270     2.1715     1.6896 C
58 C58     6.9804    -4.3285    -1.0422 C
59 C59     8.1423    -3.9330    -0.5112 C
60 C60     8.2237    -2.6459     0.2066 C
61 C61     3.0705     1.3574    -3.1608 C
62 C62     3.0984     0.6032    -4.2641 C
63 C63     3.5287    -0.8060    -4.1813 C
64 C64     4.1306     4.1195    -1.0963 C
65 C65     2.8213     4.1757    -0.6231 C
66 C66     1.8445     4.8537    -1.3695 C
67 C67     2.2006     5.4366    -2.5991 C
68 C68     3.5069     5.3549    -3.0741 C
69 C69     4.4780     4.6996    -2.3177 C
70 C70     0.4656     5.0960    -0.8809 C
71 N71     0.1708     4.9967     0.4618 N
72 S72    -1.0544     6.0169     1.1041 S
73 O73    -0.4420     6.9466     2.0435 O
74 O74    -1.7961     6.5102    -0.0683 O
75 C75    -2.1336     4.8806     2.0143 C
76 C76    -3.3507     4.5002     1.4560 C
77 C77    -4.1598     3.6723     2.2349 C
78 C78    -3.7139     3.2904     3.4975 C
79 C79    -2.4636     3.7316     3.9364 C
80 N80    -1.6761     4.5238     3.2046 N
81 N81    -0.1840     2.7627    -2.4838 N
82 C82    -0.0838     2.9628    -3.7932 C
83 C83    -0.6744     4.2046    -4.1380 C
84 C84    -1.1808     4.7329    -2.9691 C
85 C85    -0.7899     3.8760    -1.8764 C
86 H86     1.1609    -5.8541    -0.7144 H
87 H87     0.5529    -7.9269    -1.7701 H
88 H88    -3.4272    -6.4821    -2.5537 H
89 H89    -4.0741    -4.1665    -1.7709 H
90 H90    -1.7962    -8.2592    -2.7046 H
91 H91    -0.9345    -5.1947     1.7719 H
92 H92     4.2877    -3.1668     2.1109 H
93 H93     3.6660    -4.8634     3.8059 H
94 H94    -0.3102    -6.5023     3.6694 H
95 H95     1.9981    -6.3506     4.6893 H
96 H96    -3.9797     1.4380    -0.2464 H
97 H97    -3.3386    -1.3351    -3.5150 H
98 H98    -6.1518    -0.8469    -2.6249 H
99 H99    -5.6826    -3.7581     0.5515 H
100 H100    -5.8621     0.2820     0.8304 H
101 H101    -2.6384    -2.3931     1.9450 H
102 H102     3.1235    -0.5224     2.4769 H
103 H103     6.1776     1.1453    -0.1046 H
104 H104     4.8445    -3.8371    -1.3209 H
105 H105     7.2186    -0.9411     0.8640 H
106 H106     3.3860     1.3965    -0.9760 H
107 H107     4.1977    -2.3633    -2.9628 H
108 H108    -3.7821     3.3489    -1.8870 H
109 H109    -3.3721     2.9103    -4.2364 H
110 H110    -3.1010     0.5095    -5.0588 H
111 H111    -8.4168    -1.8490    -3.1483 H
112 H112    -9.2579    -3.7188    -1.8536 H
113 H113    -7.8546    -4.6909     0.0458 H
114 H114    -6.1169     0.9080     3.2744 H
115 H115    -4.6666    -0.0804     4.9480 H
116 H116    -2.8945    -1.7817     4.2550 H
117 H117     3.5454     1.3622     4.1157 H
118 H118     5.2168     3.0490     3.6382 H
119 H119     6.5678     2.9310     1.4759 H
120 H120     6.9144    -5.2765    -1.5602 H
121 H121     9.0213    -4.5584    -0.5984 H
122 H122     9.1607    -2.3384     0.6528 H
123 H123     2.7492     2.3878    -3.2178 H
124 H124     2.8016     1.0221    -5.2169 H
125 H125     3.5398    -1.4176    -5.0742 H
126 H126     4.8890     3.6171    -0.5092 H
127 H127     2.5692     3.7032     0.3204 H
128 H128     1.4521     5.9741    -3.1716 H
129 H129     3.7670     5.8156    -4.0222 H
130 H130     5.5022     4.6433    -2.6737 H
131 H131     0.0398     6.0047    -1.2856 H
132 H132    -3.6465     4.8463     0.4736 H
133 H133    -5.1217     3.3366     1.8602 H
134 H134    -4.3184     2.6622     4.1416 H
135 H135    -2.0789     3.4382     4.9088 H
136 H136    -0.0597     1.8085    -2.0647 H
137 H137     0.3683     2.2170    -4.4332 H
138 H138    -0.7179     4.6264    -5.1318 H
139 H139    -1.7066     5.6692    -2.8388 H
140 H140    -1.3999     3.6559    -1.0101 H
141 S141     0.1177     1.4524     1.3932 S
142 O142    -1.2448     1.8200     0.9497 O
143 C143    -0.1154     0.5556     3.0337 C
144 O144     1.0018     2.5924     1.7577 O
145 F145    -0.3667    -0.7408     2.8286 F
146 F146     0.9798     0.6642     3.7874 F
147 F147    -1.1500     1.0886     3.7018 F
148 H148     0.4925     4.2063     1.0465 H
@<TRIPOS>BOND
1 1 2 1
2 1 3 2
3 1 86 1
4 2 4 2
5 2 5 1
6 3 8 1
7 3 87 1
8 4 6 1
9 4 7 1
10 5 9 2
11 5 10 1
12 6 8 2
13 6 88 1
14 7 11 2
15 7 89 1
16 8 90 1
17 9 11 1
18 9 12 1
19 10 14 2
20 10 15 1
21 11 13 1
22 12 25 1
23 13 28 1
24 13 29 1
25 13 30 1
26 14 16 1
27 14 17 1
28 15 20 2
29 15 22 1
30 16 18 2
31 16 19 1
32 17 23 2
33 17 91 1
34 18 20 1
35 18 92 1
36 19 24 2
37 19 93 1
38 20 21 1
39 21 31 1
40 21 32 1
41 21 33 1
42 22 25 1
43 23 24 1
44 23 94 1
45 24 95 1
46 25 26 2
47 25 27 Ar
48 27 141 Ar
49 28 34 2
50 28 35 1
51 29 36 2
52 29 37 1
53 30 38 2
54 30 39 1
55 31 40 2
56 31 41 1
57 32 42 2
58 32 43 1
59 33 44 2
60 33 45 1
61 34 46 1
62 34 96 1
63 35 48 2
64 35 97 1
65 36 49 1
66 36 98 1
67 37 51 2
68 37 99 1
69 38 52 1
70 38 100 1
71 39 54 2
72 39 101 1
73 40 55 1
74 40 102 1
75 41 57 2
76 41 103 1
77 42 58 1
78 42 104 1
79 43 60 2
80 43 105 1
81 44 61 1
82 44 106 1
83 45 63 2
84 45 107 1
85 46 47 2
86 46 108 1
87 47 48 1
88 47 109 1
89 48 110 1
90 49 50 2
91 49 111 1
92 50 51 1
93 50 112 1
94 51 113 1
95 52 53 2
96 52 114 1
97 53 54 1
98 53 115 1
99 54 116 1
100 55 56 2
101 55 117 1
102 56 57 1
103 56 118 1
104 57 119 1
105 58 59 2
106 58 120 1
107 59 60 1
108 59 121 1
109 60 122 1
110 61 62 2
111 61 123 1
112 62 63 1
113 62 124 1
114 63 125 1
115 64 65 Ar
116 64 69 Ar
117 64 126 1
118 65 66 Ar
119 65 127 1
120 66 67 Ar
121 66 70 1
122 67 68 Ar
123 67 128 1
124 68 69 Ar
125 68 129 1
126 69 130 1
127 70 71 Ar
128 70 131 1
129 71 72 1
130 71 148 1
131 72 73 2
132 72 74 2
133 72 75 1
134 75 76 Ar
135 75 80 Ar
136 76 77 Ar
137 76 132 1
138 77 78 Ar
139 77 133 1
140 78 79 Ar
141 78 134 1
142 79 80 Ar
143 79 135 1
144 81 82 Ar
145 81 85 1
146 81 136 1
147 82 83 Ar
148 82 137 1
149 83 84 2
150 83 138 1
151 84 85 Ar
152 84 139 1
153 85 140 1
154 141 142 2
155 141 143 1
156 141 144 2
157 143 145 1
158 143 146 1
159 143 147 1
