# Title Card Required
# Created by GaussView 5.0.9
#

#
#

@<TRIPOS>MOLECULE
Molecule Name
148 159
SMALL
NO_CHARGES


@<TRIPOS>ATOM
1 C1    -5.2660     3.2342    -0.4762 C
2 C2    -4.8327     1.8105    -0.4058 C
3 C3    -6.5502     3.5614    -0.2919 C
4 C4    -5.7490     0.8634    -0.1060 C
5 C5    -3.4062     1.4147    -0.6151 C
6 C6    -7.1694     1.2362     0.0907 C
7 C7    -5.3360    -0.5427     0.0549 C
8 C8    -7.5482     2.5149    -0.0032 C
9 C9    -3.0201     0.1425    -0.3529 C
10 C10    -2.3980     2.4181    -1.0492 C
11 C11    -4.0470    -0.8960    -0.0545 C
12 O12    -1.7127    -0.2379    -0.5373 O
13 Si13    -3.5676    -2.6838     0.2112 Si
14 C14    -2.4907     3.0952    -2.2165 C
15 C15    -1.2621     2.6947    -0.1312 C
16 C16    -1.5380     4.1999    -2.4990 C
17 C17    -3.5122     2.7910    -3.2494 C
18 C18    -0.5879     4.5178    -1.6092 C
19 C19    -1.6814     4.9525    -3.7606 C
20 C20    -0.4367     3.7364    -0.3617 C
21 Si21     0.9477     4.2112     0.8015 Si
22 O22    -1.0675     1.8660     0.9424 O
23 C23    -3.5766     3.5127    -4.3746 C
24 C24    -2.6402     4.6277    -4.6348 C
25 P25    -0.6116     0.3516     0.5307 P
26 O26    -0.4946    -0.4415     1.7838 O
27 N27     0.7389     0.5799    -0.3778 N
28 C28    -5.0735    -3.7479    -0.0521 C
29 C29    -2.3060    -3.1843    -1.0695 C
30 C30    -2.9459    -2.9036     1.9570 C
31 C31     2.5839     3.6542     0.1098 C
32 C32     0.9041     6.0654     0.9597 C
33 C33     0.7267     3.4270     2.4782 C
34 C34    -5.6141    -3.8561    -1.2779 C
35 C35    -5.7156    -4.4475     1.0887 C
36 C36    -2.3902    -2.6921    -2.3184 C
37 C37    -1.2424    -4.1695    -0.7531 C
38 C38    -2.8706    -1.8572     2.7977 C
39 C39    -2.5888    -4.2559     2.4539 C
40 C40     2.6770     3.1244    -1.1210 C
41 C41     3.8020     3.7644     0.9478 C
42 C42     2.0158     6.8087     0.8246 C
43 C43    -0.3979     6.7401     1.1844 C
44 C44    -0.0717     3.9798     3.4068 C
45 C45     1.3817     2.1282     2.7669 C
46 C46    -6.8162    -4.6881    -1.4924 C
47 C47    -7.3808    -5.3287    -0.4627 C
48 C48    -6.8065    -5.1983     0.8912 C
49 C49    -1.4311    -3.1197    -3.3579 C
50 C50    -0.4844    -4.0185    -3.0677 C
51 C51    -0.3918    -4.5750    -1.7040 C
52 C52    -2.3752    -2.0417     4.1775 C
53 C53    -2.0274    -3.2592     4.6081 C
54 C54    -2.1459    -4.4214     3.7061 C
55 C55     3.9807     2.6508    -1.6312 C
56 C56     5.0746     2.7450    -0.8669 C
57 C57     4.9814     3.3330     0.4841 C
58 C58     1.9443     8.2810     0.9338 C
59 C59     0.7689     8.8820     1.1521 C
60 C60    -0.4601     8.0739     1.2785 C
61 C61    -0.2785     3.3072     4.7070 C
62 C62     0.3149     2.1347     4.9590 C
63 C63     1.1804     1.5130     3.9384 C
64 C64     4.7341    -1.2681     4.5518 C
65 C65     4.5458    -2.1886     3.5265 C
66 C66     4.2963    -1.7481     2.2081 C
67 C67     4.2166    -0.3609     1.9383 C
68 C68     4.4324     0.5433     2.9671 C
69 C69     4.6883     0.0962     4.2700 C
70 C70     4.2579    -2.7589     1.1863 C
71 N71     4.0720    -2.5515    -0.0987 N
72 S72     4.2567    -3.8825    -1.2433 S
73 O73     5.1601    -4.8194    -0.5851 O
74 O74     2.9365    -4.2857    -1.7074 O
75 C75     5.0651    -2.9635    -2.5798 C
76 C76     4.3005    -2.6012    -3.6848 C
77 C77     4.9598    -1.8774    -4.6801 C
78 C78     6.3083    -1.5716    -4.5112 C
79 C79     6.9590    -1.9916    -3.3466 C
80 N80     6.3446    -2.6807    -2.3799 N
81 N81     1.0097    -2.6499     2.5858 N
82 C82     1.2685    -2.9652     3.8890 C
83 C83     1.9099    -4.1962     3.9257 C
84 C84     2.0464    -4.6295     2.5833 C
85 C85     1.4809    -3.6448     1.7745 C
86 H86    -4.5501     4.0233    -0.6617 H
87 H87    -6.8590     4.5976    -0.3436 H
88 H88    -7.9061     0.4744     0.3137 H
89 H89    -6.0924    -1.2787     0.2956 H
90 H90    -8.5858     2.7864     0.1423 H
91 H91    -4.2086     1.9730    -3.1177 H
92 H92     0.0951     5.3344    -1.8124 H
93 H93    -1.0109     5.7731    -3.9867 H
94 H94    -4.3266     3.2742    -5.1179 H
95 H95    -2.7332     5.1874    -5.5566 H
96 H96    -5.1843    -3.3372    -2.1239 H
97 H97    -5.3244    -4.3438     2.0909 H
98 H98    -3.1594    -1.9784    -2.5846 H
99 H99    -1.1348    -4.5698     0.2411 H
100 H100    -3.1544    -0.8625     2.4825 H
101 H101    -2.7111    -5.1217     1.8161 H
102 H102     1.8072     3.0268    -1.7539 H
103 H103     3.7404     4.1864     1.9432 H
104 H104     2.9765     6.3536     0.6344 H
105 H105    -1.3078     6.1579     1.2607 H
106 H106    -0.5837     4.9120     3.2214 H
107 H107     1.9911     1.6498     2.0134 H
108 H108    -7.2387    -4.7768    -2.4849 H
109 H109    -8.2620    -5.9377    -0.6180 H
110 H110    -7.2762    -5.7038     1.7250 H
111 H111    -1.4990    -2.7053    -4.3554 H
112 H112     0.2196    -4.3327    -3.8273 H
113 H113     0.3776    -5.2989    -1.4696 H
114 H114    -2.2905    -1.1876     4.8369 H
115 H115    -1.6613    -3.3954     5.6174 H
116 H116    -1.8878    -5.4092     4.0651 H
117 H117     4.0462     2.2190    -2.6214 H
118 H118     6.0284     2.3917    -1.2366 H
119 H119     5.8678     3.4081     1.1005 H
120 H120     2.8458     8.8717     0.8353 H
121 H121     0.7155     9.9601     1.2309 H
122 H122    -1.4118     8.5634     1.4401 H
123 H123    -0.9181     3.7627     5.4519 H
124 H124     0.1578     1.6374     5.9073 H
125 H125     1.6386     0.5521     4.1342 H
126 H126     4.9234    -1.6145     5.5624 H
127 H127     4.5917    -3.2519     3.7296 H
128 H128     3.9992    -0.0010     0.9374 H
129 H129     4.3957     1.6074     2.7666 H
130 H130     4.8482     0.8198     5.0636 H
131 H131     4.5543    -3.7671     1.4596 H
132 H132     3.2509    -2.8575    -3.7455 H
133 H133     4.4215    -1.5549    -5.5653 H
134 H134     6.8530    -1.0100    -5.2627 H
135 H135     8.0088    -1.7638    -3.1809 H
136 H136     0.4835    -1.8247     2.2645 H
137 H137     0.9651    -2.3049     4.6881 H
138 H138     2.2275    -4.7188     4.8175 H
139 H139     2.4704    -5.5619     2.2356 H
140 H140     1.3309    -3.5991     0.7064 H
141 S141     1.4289    -0.5354    -1.2168 S
142 O142     0.9795    -1.9213    -1.0104 O
143 C143     0.9965    -0.1487    -2.9977 C
144 O144     2.9229    -0.3662    -1.2180 O
145 F145     1.5573     0.9981    -3.3935 F
146 F146     1.4465    -1.1347    -3.7975 F
147 F147    -0.3262    -0.0544    -3.1425 F
148 H148     3.6440    -1.6710    -0.4960 H
@<TRIPOS>BOND
1 1 2 1
2 1 3 2
3 1 86 1
4 2 4 2
5 2 5 1
6 3 8 1
7 3 87 1
8 4 6 1
9 4 7 1
10 5 9 2
11 5 10 1
12 6 8 2
13 6 88 1
14 7 11 2
15 7 89 1
16 8 90 1
17 9 11 1
18 9 12 1
19 10 14 2
20 10 15 1
21 11 13 1
22 12 25 1
23 13 28 1
24 13 29 1
25 13 30 1
26 14 16 1
27 14 17 1
28 15 20 2
29 15 22 1
30 16 18 2
31 16 19 1
32 17 23 2
33 17 91 1
34 18 20 1
35 18 92 1
36 19 24 2
37 19 93 1
38 20 21 1
39 21 31 1
40 21 32 1
41 21 33 1
42 22 25 1
43 23 24 1
44 23 94 1
45 24 95 1
46 25 26 2
47 25 27 Ar
48 27 141 Ar
49 28 34 2
50 28 35 1
51 29 36 2
52 29 37 1
53 30 38 2
54 30 39 1
55 31 40 2
56 31 41 1
57 32 42 2
58 32 43 1
59 33 44 2
60 33 45 1
61 34 46 1
62 34 96 1
63 35 48 2
64 35 97 1
65 36 49 1
66 36 98 1
67 37 51 2
68 37 99 1
69 38 52 1
70 38 100 1
71 39 54 2
72 39 101 1
73 40 55 1
74 40 102 1
75 41 57 2
76 41 103 1
77 42 58 1
78 42 104 1
79 43 60 2
80 43 105 1
81 44 61 1
82 44 106 1
83 45 63 2
84 45 107 1
85 46 47 2
86 46 108 1
87 47 48 1
88 47 109 1
89 48 110 1
90 49 50 2
91 49 111 1
92 50 51 1
93 50 112 1
94 51 113 1
95 52 53 2
96 52 114 1
97 53 54 1
98 53 115 1
99 54 116 1
100 55 56 2
101 55 117 1
102 56 57 1
103 56 118 1
104 57 119 1
105 58 59 2
106 58 120 1
107 59 60 1
108 59 121 1
109 60 122 1
110 61 62 2
111 61 123 1
112 62 63 1
113 62 124 1
114 63 125 1
115 64 65 Ar
116 64 69 Ar
117 64 126 1
118 65 66 Ar
119 65 127 1
120 66 67 Ar
121 66 70 Ar
122 67 68 Ar
123 67 128 1
124 68 69 Ar
125 68 129 1
126 69 130 1
127 70 71 2
128 70 131 1
129 71 72 1
130 71 148 1
131 72 73 2
132 72 74 2
133 72 75 1
134 75 76 Ar
135 75 80 Ar
136 76 77 Ar
137 76 132 1
138 77 78 Ar
139 77 133 1
140 78 79 Ar
141 78 134 1
142 79 80 Ar
143 79 135 1
144 81 82 Ar
145 81 85 Ar
146 81 136 1
147 82 83 Ar
148 82 137 1
149 83 84 Ar
150 83 138 1
151 84 85 Ar
152 84 139 1
153 85 140 1
154 141 142 2
155 141 143 1
156 141 144 Ar
157 143 145 1
158 143 146 1
159 143 147 1
