# Title Card Required
# Created by GaussView 5.0.9
#

#
#

@<TRIPOS>MOLECULE
Molecule Name
148 159
SMALL
NO_CHARGES


@<TRIPOS>ATOM
1 C1    -2.6633     2.5229     0.0467 C
2 C2    -5.1073     1.5778     1.1240 C
3 C3    -4.0826     0.6108     0.6752 C
4 C4    -2.8820     1.0592     0.2553 C
5 H5    -6.0430     1.2210     1.5335 H
6 C6     0.9285     4.0959    -1.7463 C
7 C7     1.0045     3.3504    -0.6343 C
8 C8    -0.2242     2.6735    -0.1307 C
9 C9    -1.4291     2.9760    -0.6540 C
10 H10     1.8009     4.5975    -2.1361 H
11 C11    -3.5947     3.4006     0.4921 C
12 C12    -4.8724     2.8939     1.0562 C
13 C13    -5.8830     3.8687     1.5131 C
14 C14    -5.6404     5.1810     1.4318 C
15 C15    -4.3629     5.6968     0.8958 C
16 C16    -3.4024     4.8738     0.4588 C
17 H17    -6.8292     3.5272     1.9159 H
18 H18    -6.3904     5.8842     1.7705 H
19 H19    -4.2014     6.7668     0.8665 H
20 H20    -2.4776     5.3071     0.1014 H
21 C21    -0.3600     4.2727    -2.4478 C
22 C22    -1.4945     3.7512    -1.9276 C
23 C23    -2.7714     3.9055    -2.6757 C
24 C24    -2.8016     4.5860    -3.8272 C
25 C25    -1.5656     5.1815    -4.3699 C
26 C26    -0.4070     5.0317    -3.7189 C
27 H27    -3.6852     3.4589    -2.3068 H
28 H28    -3.7323     4.6944    -4.3690 H
29 H29    -1.5986     5.7340    -5.3000 H
30 H30     0.4973     5.4654    -4.1273 H
31 Si31    -4.4563    -1.2200     0.7391 Si
32 Si32     2.6052     3.2741     0.3412 Si
33 C33    -3.9145    -3.1936    -3.4770 C
34 C34    -4.1969    -3.9514    -2.4112 C
35 C35    -4.3948    -3.3238    -1.0882 C
36 C36    -4.2595    -1.9950    -0.9417 C
37 C37    -3.9926    -1.1563    -2.1360 C
38 C38    -3.8217    -1.7268    -3.3350 C
39 H39    -3.7639    -3.6519    -4.4458 H
40 H40    -4.2727    -5.0262    -2.5135 H
41 H41    -4.6222    -3.9546    -0.2376 H
42 H42    -3.9468    -0.0794    -2.0539 H
43 H43    -3.6239    -1.1138    -4.2047 H
44 C44    -1.5618    -3.1168     3.8970 C
45 C45    -2.3793    -2.1168     4.2454 C
46 C46    -3.2781    -1.5115     3.2410 C
47 C47    -3.2815    -1.9628     1.9754 C
48 C48    -2.3377    -3.0397     1.5851 C
49 C49    -1.5353    -3.5957     2.5005 C
50 H50    -0.9077    -3.5660     4.6328 H
51 H51    -2.3918    -1.7560     5.2656 H
52 H52    -3.9459    -0.7154     3.5469 H
53 H53    -2.2763    -3.3777     0.5617 H
54 H54    -0.8498    -4.3831     2.2151 H
55 C55    -8.9124    -2.0095     1.9441 C
56 C56    -8.6259    -1.3099     0.8401 C
57 C57    -7.2183    -1.0644     0.4640 C
58 C58    -6.2204    -1.5291     1.2346 C
59 C59    -6.5441    -2.3187     2.4481 C
60 C60    -7.8207    -2.5420     2.7843 C
61 H61    -9.9429    -2.1907     2.2210 H
62 H62    -9.4238    -0.9220     0.2203 H
63 H63    -7.0064    -0.4993    -0.4356 H
64 H64    -5.7576    -2.7298     3.0652 H
65 H65    -8.0564    -3.1193     3.6690 H
66 C66     5.5078     0.0374    -1.3963 C
67 C67     5.8534     0.7306    -0.3053 C
68 C68     4.9346     1.7476     0.2467 C
69 C69     3.7385     1.9621    -0.3271 C
70 C70     3.3682     1.2008    -1.5409 C
71 C71     4.2075     0.2897    -2.0485 C
72 H72     6.1771    -0.7108    -1.8005 H
73 H73     6.8045     0.5457     0.1771 H
74 H74     5.2396     2.3123     1.1192 H
75 H75     2.4268     1.3894    -2.0319 H
76 H76     3.9370    -0.2626    -2.9388 H
77 C77     1.3555     2.3268     4.7598 C
78 C78     0.9167     3.4415     4.1636 C
79 C79     1.3308     3.7528     2.7798 C
80 C80     2.1656     2.9306     2.1202 C
81 C81     2.6360     1.6921     2.7833 C
82 C82     2.2538     1.4073     4.0339 C
83 H83     1.0489     2.0938     5.7712 H
84 H84     0.2515     4.1135     4.6900 H
85 H85     0.9339     4.6395     2.3009 H
86 H86     3.2719     1.0011     2.2548 H
87 H87     2.5962     0.4999     4.5135 H
88 C88     5.0762     7.2396    -0.0939 C
89 C89     4.4900     6.9541     1.0742 C
90 C90     3.7067     5.7100     1.2271 C
91 C91     3.5601     4.8687     0.1884 C
92 C92     4.2358     5.1809    -1.0958 C
93 C93     4.9485     6.3058    -1.2297 C
94 H94     5.6512     8.1496    -0.2061 H
95 H95     4.5892     7.6330     1.9113 H
96 H96     3.2669     5.4999     2.1897 H
97 H97     4.1699     4.4921    -1.9286 H
98 H98     5.4412     6.5286    -2.1673 H
99 O99    -1.9278     0.1565    -0.1363 O
100 O100    -0.1422     1.8120     0.9309 O
101 P101    -0.4588     0.2509     0.5671 P
102 O102    -0.3631    -0.4756     1.8714 O
103 N103     3.3142    -2.7456    -0.7568 N
104 H104     2.6066    -2.2856    -1.3736 H
105 C105     3.4537    -2.2229     0.4958 C
106 C106     7.1721    -1.9321     2.5849 C
107 C107     6.0041    -1.3975     3.1317 C
108 C108     4.7958    -1.5336     2.4578 C
109 C109     4.7308    -2.2130     1.2269 C
110 C110     5.9143    -2.7420     0.6816 C
111 C111     7.1216    -2.5986     1.3590 C
112 H112     8.1192    -1.8164     3.1031 H
113 H113     6.0355    -0.8655     4.0776 H
114 H114     3.8919    -1.1185     2.8819 H
115 H115     5.9100    -3.2136    -0.2929 H
116 H116     8.0299    -2.9964     0.9173 H
117 H117     2.8588    -1.3167     0.5868 H
118 N118     0.5760    -0.1910    -0.6194 N
119 S119     0.2240    -1.0955    -1.8702 S
120 O120    -0.8603    -2.0720    -1.6980 O
121 O121     1.4982    -1.6021    -2.4512 O
122 C122    -0.3766     0.0344    -3.2457 C
123 F123     0.5709     0.9064    -3.6032 F
124 F124    -0.6944    -0.7147    -4.3072 F
125 F125    -1.4600     0.7248    -2.8684 F
126 C126     1.9549    -3.2393     1.7460 C
127 C127     2.6369    -4.1956     2.5508 C
128 C128     2.6203    -3.7411     3.8613 C
129 C129     1.8672    -2.5479     3.8686 C
130 N130     1.4601    -2.2699     2.6248 N
131 H131     1.3958    -3.4643     0.8467 H
132 H132     3.1175    -5.0794     2.1598 H
133 H133     3.0873    -4.1942     4.7240 H
134 H134     1.6121    -1.8994     4.6962 H
135 H135     0.7836    -1.5183     2.3464 H
136 S136     3.6866    -4.3365    -1.2886 S
137 O137     4.6658    -4.2538    -2.3723 O
138 O138     3.9600    -5.1520    -0.1048 O
139 C139    -0.3401    -5.4011    -3.0075 C
140 C140    -0.1447    -5.0343    -1.6730 C
141 N141     1.0597    -4.7389    -1.1765 N
142 C142     2.0851    -4.7844    -2.0177 C
143 C143     2.0225    -5.1284    -3.3619 C
144 C144     0.7585    -5.4536    -3.8608 C
145 H145    -1.3397    -5.6234    -3.3647 H
146 H146    -0.9815    -4.9602    -0.9863 H
147 H147     2.9137    -5.1244    -3.9770 H
148 H148     0.6380    -5.7275    -4.9041 H
@<TRIPOS>BOND
1 1 4 1
2 1 9 1
3 1 11 2
4 2 3 1
5 2 5 1
6 2 12 2
7 3 4 2
8 3 31 1
9 4 99 1
10 6 7 2
11 6 10 1
12 6 21 1
13 7 8 1
14 7 32 1
15 8 9 2
16 8 100 1
17 9 22 1
18 11 12 1
19 11 16 1
20 12 13 1
21 13 14 2
22 13 17 1
23 14 15 1
24 14 18 1
25 15 16 2
26 15 19 1
27 16 20 1
28 21 22 2
29 21 26 1
30 22 23 1
31 23 24 2
32 23 27 1
33 24 25 1
34 24 28 1
35 25 26 2
36 25 29 1
37 26 30 1
38 31 36 1
39 31 47 1
40 31 58 1
41 32 69 1
42 32 80 1
43 32 91 1
44 33 34 2
45 33 38 1
46 33 39 1
47 34 35 1
48 34 40 1
49 35 36 2
50 35 41 1
51 36 37 1
52 37 38 2
53 37 42 1
54 38 43 1
55 44 45 2
56 44 49 1
57 44 50 1
58 45 46 1
59 45 51 1
60 46 47 2
61 46 52 1
62 47 48 1
63 48 49 2
64 48 53 1
65 49 54 1
66 55 56 2
67 55 60 1
68 55 61 1
69 56 57 1
70 56 62 1
71 57 58 2
72 57 63 1
73 58 59 1
74 59 60 2
75 59 64 1
76 60 65 1
77 66 67 2
78 66 71 1
79 66 72 1
80 67 68 1
81 67 73 1
82 68 69 2
83 68 74 1
84 69 70 1
85 70 71 2
86 70 75 1
87 71 76 1
88 77 78 2
89 77 82 1
90 77 83 1
91 78 79 1
92 78 84 1
93 79 80 2
94 79 85 1
95 80 81 1
96 81 82 2
97 81 86 1
98 82 87 1
99 88 89 2
100 88 93 1
101 88 94 1
102 89 90 1
103 89 95 1
104 90 91 2
105 90 96 1
106 91 92 1
107 92 93 2
108 92 97 1
109 93 98 1
110 99 101 1
111 100 101 1
112 101 102 2
113 101 118 Ar
114 103 104 1
115 103 105 Ar
116 103 136 1
117 105 109 1
118 105 117 1
119 106 107 Ar
120 106 111 Ar
121 106 112 1
122 107 108 Ar
123 107 113 1
124 108 109 Ar
125 108 114 1
126 109 110 Ar
127 110 111 Ar
128 110 115 1
129 111 116 1
130 118 119 Ar
131 119 120 2
132 119 121 2
133 119 122 1
134 122 123 1
135 122 124 1
136 122 125 1
137 126 127 Ar
138 126 130 1
139 126 131 1
140 127 128 Ar
141 127 132 1
142 128 129 Ar
143 128 133 1
144 129 130 Ar
145 129 134 1
146 130 135 1
147 136 137 2
148 136 138 2
149 136 142 1
150 139 140 Ar
151 139 144 Ar
152 139 145 1
153 140 141 Ar
154 140 146 1
155 141 142 Ar
156 142 143 Ar
157 143 144 Ar
158 143 147 1
159 144 148 1
