# Title Card Required
# Created by GaussView 5.0.9
#

#
#

@<TRIPOS>MOLECULE
Molecule Name
148 159
SMALL
NO_CHARGES


@<TRIPOS>ATOM
1 C1    -1.9989     2.9008     0.0015 C
2 C2    -4.6080     2.5215     1.0273 C
3 C3    -3.7907     1.3473     0.6516 C
4 C4    -2.5134     1.5201     0.2502 C
5 H5    -5.6219     2.3852     1.3776 H
6 C6     1.7665     3.7543    -1.8911 C
7 C7     1.7321     3.0327    -0.7606 C
8 C8     0.4166     2.5716    -0.2314 C
9 C9    -0.7234     3.0767    -0.7417 C
10 H10     2.7028     4.1100    -2.2941 H
11 C11    -2.7289     3.9656     0.4131 C
12 C12    -4.0974     3.7555     0.9480 C
13 C13    -4.8966     4.9344     1.3380 C
14 C14    -4.3838     6.1644     1.2273 C
15 C15    -3.0122     6.3846     0.7219 C
16 C16    -2.2331     5.3651     0.3420 C
17 H17    -5.9047     4.8110     1.7155 H
18 H18    -4.9806     7.0195     1.5178 H
19 H19    -2.6305     7.3961     0.6667 H
20 H20    -1.2285     5.5831     0.0033 H
21 C21     0.5176     4.1203    -2.5882 C
22 C22    -0.6788     3.8164    -2.0376 C
23 C23    -1.9239     4.1644    -2.7746 C
24 C24    -1.8581     4.8052    -3.9473 C
25 C25    -0.5483     5.1647    -4.5238 C
26 C26     0.5789     4.8388    -3.8820 C
27 H27    -2.8937     3.8908    -2.3805 H
28 H28    -2.7660     5.0542    -4.4812 H
29 H29    -0.5029     5.6870    -5.4707 H
30 H30     1.5367     5.1001    -4.3146 H
31 Si31    -4.5495    -0.3574     0.7407 Si
32 Si32     3.2965     2.7986     0.2408 Si
33 C33    -4.3882    -2.3826    -3.4942 C
34 C34    -4.8384    -3.0694    -2.4384 C
35 C35    -4.9102    -2.4240    -1.1116 C
36 C36    -4.4994    -1.1540    -0.9497 C
37 C37    -4.0470    -0.3845    -2.1357 C
38 C38    -3.9858    -0.9710    -3.3377 C
39 H39    -4.3300    -2.8553    -4.4660 H
40 H40    -5.1449    -4.1011    -2.5517 H
41 H41    -5.2838    -2.9964    -0.2716 H
42 H42    -3.7773     0.6582    -2.0467 H
43 H43    -3.6519    -0.4084    -4.1999 H
44 C44    -2.1968    -2.8940     3.9078 C
45 C45    -2.6504    -1.6770     4.2247 C
46 C46    -3.3456    -0.8596     3.2096 C
47 C47    -3.5474    -1.3403     1.9706 C
48 C48    -2.9565    -2.6517     1.6038 C
49 C49    -2.3310    -3.3930     2.5258 C
50 H50    -1.7044    -3.5026     4.6550 H
51 H51    -2.5273    -1.2963     5.2302 H
52 H52    -3.6906     0.1251     3.4893 H
53 H53    -3.0028    -3.0143     0.5905 H
54 H54    -1.9001    -4.3484     2.2549 H
55 C55    -9.0265    -0.1233     2.1625 C
56 C56    -8.7408    -0.5132     0.9160 C
57 C57    -7.3356    -0.5834     0.4644 C
58 C58    -6.3321    -0.2668     1.3036 C
59 C59    -6.6623     0.1796     2.6813 C
60 C60    -7.9366     0.2448     3.0860 C
61 H61   -10.0554    -0.0703     2.4941 H
62 H62    -9.5385    -0.7776     0.2339 H
63 H63    -7.1438    -0.8837    -0.5555 H
64 H64    -5.8847     0.4787     3.3656 H
65 H65    -8.1718     0.5772     4.0889 H
66 C66     5.6356    -1.0507    -1.0403 C
67 C67     4.4659    -0.7613    -1.6212 C
68 C68     3.7125     0.4420    -1.2113 C
69 C69     4.1872     1.2394    -0.2417 C
70 C70     5.4943     0.9246     0.3842 C
71 C71     6.1786    -0.1621     0.0063 C
72 H72     6.1870    -1.9333    -1.3375 H
73 H73     4.0731    -1.4039    -2.3977 H
74 H74     2.7913     0.6778    -1.7220 H
75 H75     5.9035     1.5758     1.1464 H
76 H76     7.1300    -0.3930     0.4675 H
77 C77     1.9334     2.8072     4.7244 C
78 C78     2.7572     1.8478     4.2869 C
79 C79     3.2136     1.8478     2.8818 C
80 C80     2.8064     2.8079     2.0373 C
81 C81     1.8993     3.8738     2.5308 C
82 C82     1.4842     3.8705     3.8033 C
83 H83     1.5955     2.8068     5.7526 H
84 H84     3.0878     1.0664     4.9589 H
85 H85     3.8756     1.0644     2.5546 H
86 H86     1.5611     4.6539     1.8600 H
87 H87     0.8178     4.6454     4.1593 H
88 C88     6.3541     6.2658    -0.5508 C
89 C89     6.1455     5.3271    -1.4807 C
90 C90     5.1795     4.2379    -1.2294 C
91 C91     4.4936     4.1908    -0.0739 C
92 C92     4.7428     5.2266     0.9596 C
93 C93     5.6217     6.2103     0.7299 C
94 H94     7.0621     7.0639    -0.7327 H
95 H95     6.6847     5.3621    -2.4185 H
96 H96     5.0402     3.4788    -1.9893 H
97 H97     4.2242     5.1983     1.9068 H
98 H98     5.8012     6.9653     1.4844 H
99 O99    -1.7676     0.4234    -0.1044 O
100 O100     0.3656     1.7246     0.8470 O
101 P101    -0.2703     0.2539     0.5191 P
102 O102    -0.2696    -0.4613     1.8451 O
103 N103     2.6481    -3.6757    -0.7472 N
104 H104     2.3372    -3.0387    -1.4933 H
105 C105     2.5425    -3.0795     0.5849 C
106 C106     6.2534    -2.5822     2.7579 C
107 C107     5.1983    -1.6855     2.9270 C
108 C108     4.0187    -1.8569     2.2025 C
109 C109     3.8717    -2.9297     1.3151 C
110 C110     4.9335    -3.8245     1.1489 C
111 C111     6.1178    -3.6464     1.8648 C
112 H112     7.1793    -2.4459     3.3088 H
113 H113     5.2988    -0.8430     3.6049 H
114 H114     3.2043    -1.1480     2.3131 H
115 H115     4.8395    -4.6525     0.4563 H
116 H116     6.9396    -4.3414     1.7190 H
117 H117     2.1649    -2.0741     0.3702 H
118 N118     0.6138    -0.4147    -0.6613 N
119 S119     0.1285    -1.2218    -1.9393 S
120 O120    -1.1276    -1.9694    -1.7895 O
121 O121     1.2900    -1.9401    -2.5112 O
122 C122    -0.2148     0.0572    -3.2640 C
123 F123    -1.2083     0.8790    -2.8966 F
124 F124     0.8741     0.7971    -3.5000 F
125 F125    -0.5707    -0.5635    -4.3926 F
126 C126     1.4376    -3.7087     1.5366 C
127 C127     1.8693    -4.7678     2.4946 C
128 C128     1.6294    -4.3575     3.7641 C
129 C129     1.0449    -3.0457     3.6700 C
130 N130     0.9165    -2.6741     2.4294 N
131 H131     0.6202    -4.0842     0.8932 H
132 H132     2.2993    -5.6987     2.1560 H
133 H133     1.8271    -4.8853     4.6862 H
134 H134     0.7138    -2.4029     4.4787 H
135 H135     0.4441    -1.7511     2.1156 H
136 S136     2.4717    -5.2581    -1.2027 S
137 O137     3.2826    -5.4818    -2.3989 O
138 O138     2.6627    -6.0881    -0.0048 O
139 C139    -1.8493    -5.5386    -2.5173 C
140 C140    -1.4638    -5.2292    -1.2122 C
141 N141    -0.1847    -5.1614    -0.8288 N
142 C142     0.7409    -5.4007    -1.7540 C
143 C143     0.4783    -5.7171    -3.0829 C
144 C144    -0.8616    -5.7855    -3.4667 C
145 H145    -2.9014    -5.5719    -2.7777 H
146 H146    -2.2085    -5.0282    -0.4486 H
147 H147     1.2951    -5.8870    -3.7727 H
148 H148    -1.1249    -6.0205    -4.4933 H
@<TRIPOS>BOND
1 1 4 1
2 1 9 1
3 1 11 2
4 2 3 1
5 2 5 1
6 2 12 2
7 3 4 2
8 3 31 1
9 4 99 1
10 6 7 2
11 6 10 1
12 6 21 1
13 7 8 1
14 7 32 1
15 8 9 2
16 8 100 1
17 9 22 1
18 11 12 1
19 11 16 1
20 12 13 1
21 13 14 2
22 13 17 1
23 14 15 1
24 14 18 1
25 15 16 2
26 15 19 1
27 16 20 1
28 21 22 2
29 21 26 1
30 22 23 1
31 23 24 2
32 23 27 1
33 24 25 1
34 24 28 1
35 25 26 2
36 25 29 1
37 26 30 1
38 31 36 1
39 31 47 1
40 31 58 1
41 32 69 1
42 32 80 1
43 32 91 1
44 33 34 2
45 33 38 1
46 33 39 1
47 34 35 1
48 34 40 1
49 35 36 2
50 35 41 1
51 36 37 1
52 37 38 2
53 37 42 1
54 38 43 1
55 44 45 2
56 44 49 1
57 44 50 1
58 45 46 1
59 45 51 1
60 46 47 2
61 46 52 1
62 47 48 1
63 48 49 2
64 48 53 1
65 49 54 1
66 55 56 2
67 55 60 1
68 55 61 1
69 56 57 1
70 56 62 1
71 57 58 2
72 57 63 1
73 58 59 1
74 59 60 2
75 59 64 1
76 60 65 1
77 66 67 2
78 66 71 1
79 66 72 1
80 67 68 1
81 67 73 1
82 68 69 2
83 68 74 1
84 69 70 1
85 70 71 2
86 70 75 1
87 71 76 1
88 77 78 2
89 77 82 1
90 77 83 1
91 78 79 1
92 78 84 1
93 79 80 2
94 79 85 1
95 80 81 1
96 81 82 2
97 81 86 1
98 82 87 1
99 88 89 2
100 88 93 1
101 88 94 1
102 89 90 1
103 89 95 1
104 90 91 2
105 90 96 1
106 91 92 1
107 92 93 2
108 92 97 1
109 93 98 1
110 99 101 1
111 100 101 1
112 101 102 2
113 101 118 Ar
114 103 104 1
115 103 105 1
116 103 136 1
117 105 109 1
118 105 117 1
119 105 126 1
120 106 107 Ar
121 106 111 Ar
122 106 112 1
123 107 108 Ar
124 107 113 1
125 108 109 Ar
126 108 114 1
127 109 110 Ar
128 110 111 Ar
129 110 115 1
130 111 116 1
131 118 119 Ar
132 119 120 2
133 119 121 2
134 119 122 1
135 122 123 1
136 122 124 1
137 122 125 1
138 126 127 1
139 126 130 1
140 126 131 1
141 127 128 2
142 127 132 1
143 128 129 Ar
144 128 133 1
145 129 130 2
146 129 134 1
147 136 137 2
148 136 138 2
149 136 142 1
150 139 140 Ar
151 139 144 Ar
152 139 145 1
153 140 141 Ar
154 140 146 1
155 141 142 Ar
156 142 143 Ar
157 143 144 Ar
158 143 147 1
159 144 148 1
