# Title Card Required
# Created by GaussView 5.0.9
#

#
#

@<TRIPOS>MOLECULE
Molecule Name
148 159
SMALL
NO_CHARGES


@<TRIPOS>ATOM
1 C1     1.5118     2.8885    -0.7896 C
2 C2    -0.3446     4.9690    -0.3147 C
3 C3    -0.7921     3.5607    -0.2491 C
4 C4     0.1066     2.5613    -0.3850 C
5 H5    -1.0553     5.7687    -0.1482 H
6 C6     4.5479     0.0135    -1.7553 C
7 C7     3.9305    -0.0342    -0.5644 C
8 C8     2.7428     0.8295    -0.3234 C
9 C9     2.4303     1.7981    -1.2043 C
10 H10     5.4485    -0.5547    -1.9385 H
11 C11     1.9223     4.1811    -0.7842 C
12 C12     0.9386     5.2641    -0.5414 C
13 C13     1.3975     6.6670    -0.5867 C
14 C14     2.6834     6.9496    -0.8183 C
15 C15     3.6812     5.8793    -1.0252 C
16 C16     3.3360     4.5866    -1.0077 C
17 H17     0.6947     7.4774    -0.4335 H
18 H18     3.0061     7.9824    -0.8479 H
19 H19     4.7166     6.1521    -1.1847 H
20 H20     4.1153     3.8468    -1.1354 H
21 C21     4.0599     0.9154    -2.8175 C
22 C22     3.0586     1.7855    -2.5583 C
23 C23     2.5658     2.6691    -3.6487 C
24 C24     3.1345     2.6287    -4.8592 C
25 C25     4.2501     1.6997    -5.1242 C
26 C26     4.6888     0.8853    -4.1581 C
27 H27     1.7368     3.3437    -3.4795 H
28 H28     2.7726     3.2725    -5.6504 H
29 H29     4.7082     1.6756    -6.1046 H
30 H30     5.5041     0.2021    -4.3615 H
31 Si31    -2.5982     3.2386     0.1056 Si
32 Si32     4.7180    -0.9465     0.8618 Si
33 C33    -4.2053    -0.2301    -2.6125 C
34 C34    -4.7203    -0.0553    -1.3905 C
35 C35    -4.2016     1.0147    -0.5122 C
36 C36    -3.2170     1.8235    -0.9390 C
37 C37    -2.6544     1.6258    -2.2983 C
38 C38    -3.1215     0.6516    -3.0882 C
39 H39    -4.5801    -1.0168    -3.2536 H
40 H40    -5.5148    -0.7012    -1.0403 H
41 H41    -4.6408     1.1331     0.4664 H
42 H42    -1.8619     2.2686    -2.6600 H
43 H43    -2.7057     0.5071    -4.0769 H
44 C44    -3.1295     2.5466     4.7111 C
45 C45    -4.2033     2.7126     3.9308 C
46 C46    -4.0403     2.8912     2.4740 C
47 C47    -2.8130     2.9167     1.9271 C
48 C48    -1.6255     2.7561     2.8019 C
49 C49    -1.7779     2.5675     4.1183 C
50 H50    -3.2485     2.4072     5.7776 H
51 H51    -5.1950     2.7123     4.3639 H
52 H52    -4.9234     3.0373     1.8649 H
53 H53    -0.6274     2.7923     2.3883 H
54 H54    -0.9101     2.4448     4.7534 H
55 C55    -4.9606     7.0816    -1.1718 C
56 C56    -4.4745     6.2509    -2.1009 C
57 C57    -3.7316     5.0396    -1.6956 C
58 C58    -3.5544     4.7563    -0.3939 C
59 C59    -4.0772     5.6941     0.6310 C
60 C60    -4.7465     6.7927     0.2602 C
61 H61    -5.5041     7.9698    -1.4670 H
62 H62    -4.6236     6.4639    -3.1515 H
63 H63    -3.3365     4.3908    -2.4657 H
64 H64    -3.9042     5.5141     1.6828 H
65 H65    -5.1227     7.4781     1.0087 H
66 C66     8.2486    -3.6644    -0.6411 C
67 C67     8.4629    -2.7765     0.3356 C
68 C68     7.3610    -1.9120     0.8076 C
69 C69     6.1321    -2.0201     0.2707 C
70 C70     5.9121    -2.9916    -0.8308 C
71 C71     6.9127    -3.7709    -1.2584 C
72 H72     9.0550    -4.2975    -0.9879 H
73 H73     9.4441    -2.6897     0.7843 H
74 H74     7.5741    -1.1999     1.5902 H
75 H75     4.9539    -3.0490    -1.3265 H
76 H76     6.7495    -4.4684    -2.0698 H
77 C77     1.6142    -3.6596     3.1078 C
78 C78     1.9758    -2.4833     3.6306 C
79 C79     2.9225    -1.6111     2.9079 C
80 C80     3.4455    -2.0002     1.7310 C
81 C81     3.0190    -3.2961     1.1490 C
82 C82     2.1520    -4.0798     1.8014 C
83 H83     0.9244    -4.3030     3.6379 H
84 H84     1.5810    -2.1691     4.5877 H
85 H85     3.1808    -0.6597     3.3510 H
86 H86     3.4025    -3.6261     0.1985 H
87 H87     1.8456    -5.0257     1.3739 H
88 C88     6.3549     2.2157     3.9226 C
89 C89     5.9062     2.6207     2.7290 C
90 C90     5.3955     1.6340     1.7550 C
91 C91     5.3728     0.3250     2.0641 C
92 C92     5.8797    -0.1164     3.3875 C
93 C93     6.3428     0.7800     4.2670 C
94 H94     6.7290     2.9380     4.6366 H
95 H95     5.9159     3.6724     2.4733 H
96 H96     5.0522     1.9924     0.7948 H
97 H97     5.8754    -1.1676     3.6476 H
98 H98     6.7099     0.4550     5.2318 H
99 O99    -0.3208     1.2588    -0.2774 O
100 O100     2.0462     0.7254     0.8531 O
101 P101     0.5082     0.2045     0.6568 P
102 O102    -0.0510     0.1203     2.0545 O
103 N103    -3.1686    -2.5668    -0.2527 N
104 H104    -2.4966    -2.1580    -0.9224 H
105 C105    -2.9605    -2.0123     1.0845 C
106 C106    -6.5362    -1.1289     3.3699 C
107 C107    -5.3235    -0.5118     3.6746 C
108 C108    -4.1875    -0.7821     2.9115 C
109 C109    -4.2385    -1.7070     1.8580 C
110 C110    -5.4639    -2.3054     1.5437 C
111 C111    -6.6035    -2.0121     2.2933 C
112 H112    -7.4224    -0.9116     3.9588 H
113 H113    -5.2649     0.1835     4.5057 H
114 H114    -3.2620    -0.2557     3.1262 H
115 H115    -5.5312    -2.9936     0.7119 H
116 H116    -7.5469    -2.4821     2.0315 H
117 H117    -2.4532    -1.0630     0.8893 H
118 N118     0.4155    -1.1999    -0.1451 N
119 S119     0.1978    -1.3632    -1.7182 S
120 O120     0.8798    -0.3920    -2.5838 O
121 O121    -1.2130    -1.6719    -2.0632 O
122 C122     1.0799    -2.9789    -2.0196 C
123 F123     0.6758    -3.4642    -3.2050 F
124 F124     2.3996    -2.7736    -2.0723 F
125 F125     0.8099    -3.8784    -1.0754 F
126 C126    -1.8898    -2.8288     1.9419 C
127 C127    -2.4081    -3.9532     2.7719 C
128 C128    -2.1160    -3.7158     4.0745 C
129 C129    -1.4024    -2.4643     4.1208 C
130 N130    -1.2577    -1.9627     2.9291 N
131 H131    -1.1149    -3.1562     1.2336 H
132 H132    -2.9526    -4.7874     2.3494 H
133 H133    -2.3589    -4.3237     4.9345 H
134 H134    -0.9999    -1.9622     4.9940 H
135 H135    -0.7177    -1.0677     2.6213 H
136 S136    -3.2411    -4.2159    -0.5942 S
137 O137    -1.8931    -4.7893    -0.7380 O
138 O138    -4.1745    -4.8523     0.3451 O
139 C139    -5.1064    -3.8129    -4.6801 C
140 C140    -5.8480    -3.8497    -3.4965 C
141 N141    -5.2879    -3.9818    -2.2897 N
142 C142    -3.9662    -4.0936    -2.2556 C
143 C143    -3.1157    -4.0742    -3.3586 C
144 C144    -3.7193    -3.9236    -4.6079 C
145 H145    -5.6106    -3.6927    -5.6333 H
146 H146    -6.9317    -3.7621    -3.5153 H
147 H147    -2.0421    -4.1450    -3.2374 H
148 H148    -3.1115    -3.8878    -5.5064 H
@<TRIPOS>BOND
1 1 4 1
2 1 9 1
3 1 11 2
4 2 3 1
5 2 5 1
6 2 12 2
7 3 4 2
8 3 31 1
9 4 99 1
10 6 7 2
11 6 10 1
12 6 21 1
13 7 8 1
14 7 32 1
15 8 9 2
16 8 100 1
17 9 22 1
18 11 12 1
19 11 16 1
20 12 13 1
21 13 14 2
22 13 17 1
23 14 15 1
24 14 18 1
25 15 16 2
26 15 19 1
27 16 20 1
28 21 22 2
29 21 26 1
30 22 23 1
31 23 24 2
32 23 27 1
33 24 25 1
34 24 28 1
35 25 26 2
36 25 29 1
37 26 30 1
38 31 36 1
39 31 47 1
40 31 58 1
41 32 69 1
42 32 80 1
43 32 91 1
44 33 34 2
45 33 38 1
46 33 39 1
47 34 35 1
48 34 40 1
49 35 36 2
50 35 41 1
51 36 37 1
52 37 38 2
53 37 42 1
54 38 43 1
55 44 45 2
56 44 49 1
57 44 50 1
58 45 46 1
59 45 51 1
60 46 47 2
61 46 52 1
62 47 48 1
63 48 49 2
64 48 53 1
65 49 54 1
66 55 56 2
67 55 60 1
68 55 61 1
69 56 57 1
70 56 62 1
71 57 58 2
72 57 63 1
73 58 59 1
74 59 60 2
75 59 64 1
76 60 65 1
77 66 67 2
78 66 71 1
79 66 72 1
80 67 68 1
81 67 73 1
82 68 69 2
83 68 74 1
84 69 70 1
85 70 71 2
86 70 75 1
87 71 76 1
88 77 78 2
89 77 82 1
90 77 83 1
91 78 79 1
92 78 84 1
93 79 80 2
94 79 85 1
95 80 81 1
96 81 82 2
97 81 86 1
98 82 87 1
99 88 89 2
100 88 93 1
101 88 94 1
102 89 90 1
103 89 95 1
104 90 91 2
105 90 96 1
106 91 92 1
107 92 93 2
108 92 97 1
109 93 98 1
110 99 101 1
111 100 101 1
112 101 102 2
113 101 118 Ar
114 103 104 1
115 103 105 1
116 103 136 1
117 105 109 1
118 105 117 1
119 105 126 1
120 106 107 Ar
121 106 111 Ar
122 106 112 1
123 107 108 Ar
124 107 113 1
125 108 109 Ar
126 108 114 1
127 109 110 Ar
128 110 111 Ar
129 110 115 1
130 111 116 1
131 118 119 Ar
132 119 120 2
133 119 121 2
134 119 122 1
135 122 123 1
136 122 124 1
137 122 125 1
138 126 127 1
139 126 130 1
140 126 131 1
141 127 128 2
142 127 132 1
143 128 129 Ar
144 128 133 1
145 129 130 2
146 129 134 1
147 136 137 2
148 136 138 2
149 136 142 1
150 139 140 Ar
151 139 144 Ar
152 139 145 1
153 140 141 Ar
154 140 146 1
155 141 142 Ar
156 142 143 Ar
157 143 144 Ar
158 143 147 1
159 144 148 1
