# Title Card Required
# Created by GaussView 5.0.9
#

#
#

@<TRIPOS>MOLECULE
Molecule Name
148 159
SMALL
NO_CHARGES


@<TRIPOS>ATOM
1 C1     1.1171     3.0552    -0.7237 C
2 C2    -0.9050     4.9796    -0.2782 C
3 C3    -1.2591     3.5442    -0.3311 C
4 C4    -0.2849     2.6168    -0.4529 C
5 H5    -1.6793     5.7201    -0.1216 H
6 C6     4.5458     0.6471    -1.4675 C
7 C7     3.7906     0.3968    -0.3850 C
8 C8     2.4626     1.0672    -0.2530 C
9 C9     2.1327     2.0476    -1.1171 C
10 H10     5.5646     0.2859    -1.5273 H
11 C11     1.4390     4.3677    -0.6099 C
12 C12     0.3688     5.3692    -0.3850 C
13 C13     0.7343     6.7979    -0.3085 C
14 C14     2.0132     7.1737    -0.4112 C
15 C15     3.0943     6.1826    -0.5927 C
16 C16     2.8363     4.8727    -0.6832 C
17 H17    -0.0315     7.5516    -0.1683 H
18 H18     2.2673     8.2242    -0.3512 H
19 H19     4.1190     6.5282    -0.6417 H
20 H20     3.6719     4.1923    -0.7804 H
21 C21     4.0389     1.4992    -2.5591 C
22 C22     2.8876     2.1833    -2.3949 C
23 C23     2.3857     3.0393    -3.5020 C
24 C24     3.0867     3.1535    -4.6361 C
25 C25     4.3604     2.4248    -4.7974 C
26 C26     4.8131     1.6389    -3.8138 C
27 H27     1.4473     3.5700    -3.4045 H
28 H28     2.7192     3.7772    -5.4408 H
29 H29     4.9249     2.5256    -5.7154 H
30 H30     5.7464     1.1044    -3.9397 H
31 Si31    -3.0578     3.0945    -0.1058 Si
32 Si32     4.6120    -0.3788     1.0996 Si
33 C33    -5.5238     6.7327    -1.7354 C
34 C34    -5.4230     6.5410    -0.4152 C
35 C35    -4.6528     5.3948     0.1107 C
36 C36    -4.0645     4.5292    -0.7335 C
37 C37    -4.1660     4.7583    -2.1952 C
38 C38    -4.8605     5.8003    -2.6685 C
39 H39    -6.0855     7.5732    -2.1218 H
40 H40    -5.9016     7.2274     0.2712 H
41 H41    -4.5563     5.2875     1.1818 H
42 H42    -3.6759     4.0890    -2.8892 H
43 H43    -4.9333     5.9650    -3.7357 H
44 C44    -4.2477    -0.5716    -2.7754 C
45 C45    -4.8612    -0.3786    -1.6024 C
46 C46    -4.4753     0.7590    -0.7414 C
47 C47    -3.5148     1.6112    -1.1360 C
48 C48    -2.8495     1.3987    -2.4457 C
49 C49    -3.1913     0.3596    -3.2164 C
50 H50    -4.5239    -1.4088    -3.4027 H
51 H51    -5.6357    -1.0608    -1.2768 H
52 H52    -4.9888     0.8900     0.1991 H
53 H53    -2.0794     2.0803    -2.7840 H
54 H54    -2.6977     0.2023    -4.1666 H
55 C55    -3.9258     2.5513     4.4679 C
56 C56    -2.6623     2.5677     4.0290 C
57 C57    -2.3812     2.7205     2.5868 C
58 C58    -3.3917     2.8115     1.7050 C
59 C59    -4.7906     2.7651     2.1968 C
60 C60    -5.0418     2.6630     3.5072 C
61 H61    -4.1333     2.4471     5.5249 H
62 H62    -1.8424     2.4816     4.7303 H
63 H63    -1.3501     2.7714     2.2660 H
64 H64    -5.6163     2.8456     1.5012 H
65 H65    -6.0632     2.6446     3.8647 H
66 C66     7.3016    -4.1181     0.1932 C
67 C67     7.2221    -3.6213     1.4323 C
68 C68     6.3761    -2.4409     1.7033 C
69 C69     5.6987    -1.8445     0.7064 C
70 C70     5.7747    -2.4166    -0.6613 C
71 C71     6.5373    -3.4904    -0.9024 C
72 H72     7.9196    -4.9837    -0.0074 H
73 H73     7.7759    -4.0829     2.2395 H
74 H74     6.3151    -2.0645     2.7172 H
75 H75     5.2079    -1.9905    -1.4736 H
76 H76     6.5882    -3.9073    -1.9001 H
77 C77     1.6156    -2.2116     4.1873 C
78 C78     2.2726    -1.0887     4.4991 C
79 C79     3.2076    -0.4834     3.5280 C
80 C80     3.3751    -1.0395     2.3162 C
81 C81     2.6286    -2.2714     1.9698 C
82 C82     1.8077    -2.8351     2.8626 C
83 H83     0.9408    -2.6632     4.9026 H
84 H84     2.1332    -0.6300     5.4694 H
85 H85     3.7618     0.3951     3.8244 H
86 H86     2.7669    -2.7373     1.0038 H
87 H87     1.2801    -3.7468     2.6147 H
88 C88     7.0524     3.2282     2.8300 C
89 C89     7.6912     2.1003     2.4977 C
90 C90     6.9347     0.9490     1.9616 C
91 C91     5.5996     1.0222     1.8252 C
92 C92     4.8999     2.2809     2.1840 C
93 C93     5.5889     3.3244     2.6607 C
94 H94     7.6064     4.0728     3.2190 H
95 H95     8.7649     2.0300     2.6151 H
96 H96     7.4818     0.0643     1.6700 H
97 H97     3.8276     2.3638     2.0597 H
98 H98     5.0757     4.2413     2.9203 H
99 O99    -0.6123     1.2838    -0.4507 O
100 O100     1.6906     0.8515     0.8618 O
101 P101     0.1822     0.2790     0.5665 P
102 O102    -0.4824     0.1483     1.9031 O
103 N103    -3.0204    -2.9256    -0.7180 N
104 H104    -2.2785    -2.5682    -1.3557 H
105 C105    -3.0551    -2.3044     0.5009 C
106 C106    -6.3459    -1.5350     3.1221 C
107 C107    -5.1615    -0.8079     3.2049 C
108 C108    -4.1090    -1.0768     2.3317 C
109 C109    -4.2145    -2.1145     1.3808 C
110 C110    -5.4174    -2.8444     1.3103 C
111 C111    -6.4720    -2.5439     2.1631 C
112 H112    -7.1688    -1.3150     3.7956 H
113 H113    -5.0554    -0.0323     3.9537 H
114 H114    -3.2125    -0.4661     2.3621 H
115 H115    -5.5305    -3.6491     0.5994 H
116 H116    -7.3972    -3.1061     2.0822 H
117 H117    -2.3970    -1.4411     0.4637 H
118 N118     0.1991    -1.1317    -0.2461 N
119 S119     0.2685    -1.3734    -1.8078 S
120 O120     0.8499    -0.3118    -2.6385 O
121 O121    -0.9780    -2.0109    -2.3178 O
122 C122     1.4901    -2.7765    -1.8852 C
123 F123     2.7206    -2.3321    -1.6238 F
124 F124     1.1803    -3.7345    -0.9954 F
125 F125     1.4787    -3.3187    -3.1096 F
126 C126    -1.5279    -3.2471     1.7155 C
127 C127    -2.1822    -4.3573     2.3180 C
128 C128    -2.4602    -4.0167     3.6356 C
129 C129    -1.9229    -2.7317     3.8481 C
130 N130    -1.3235    -2.3113     2.7253 N
131 H131    -0.8446    -3.2528     0.8784 H
132 H132    -2.4487    -5.2630     1.7940 H
133 H133    -2.9983    -4.6007     4.3681 H
134 H134    -1.9479    -2.1129     4.7343 H
135 H135    -0.8984    -1.3792     2.5467 H
136 S136    -3.6657    -4.4125    -1.2720 S
137 O137    -4.1428    -5.1754    -0.1190 O
138 O138    -4.5470    -4.1244    -2.4014 O
139 C139     0.0391    -6.4461    -2.8361 C
140 C140    -0.2565    -6.3249    -1.4757 C
141 N141    -1.3510    -5.7055    -1.0230 N
142 C142    -2.1711    -5.2014    -1.9358 C
143 C143    -1.9892    -5.2506    -3.3140 C
144 C144    -0.8380    -5.8963    -3.7679 C
145 H145     0.9438    -6.9549    -3.1509 H
146 H146     0.4116    -6.7320    -0.7215 H
147 H147    -2.7131    -4.8042    -3.9841 H
148 H148    -0.6332    -5.9649    -4.8314 H
@<TRIPOS>BOND
1 1 4 1
2 1 9 1
3 1 11 2
4 2 3 1
5 2 5 1
6 2 12 2
7 3 4 2
8 3 31 1
9 4 99 1
10 6 7 2
11 6 10 1
12 6 21 1
13 7 8 1
14 7 32 1
15 8 9 2
16 8 100 1
17 9 22 1
18 11 12 1
19 11 16 1
20 12 13 1
21 13 14 2
22 13 17 1
23 14 15 1
24 14 18 1
25 15 16 2
26 15 19 1
27 16 20 1
28 21 22 2
29 21 26 1
30 22 23 1
31 23 24 2
32 23 27 1
33 24 25 1
34 24 28 1
35 25 26 2
36 25 29 1
37 26 30 1
38 31 36 1
39 31 47 1
40 31 58 1
41 32 69 1
42 32 80 1
43 32 91 1
44 33 34 2
45 33 38 1
46 33 39 1
47 34 35 1
48 34 40 1
49 35 36 2
50 35 41 1
51 36 37 1
52 37 38 2
53 37 42 1
54 38 43 1
55 44 45 2
56 44 49 1
57 44 50 1
58 45 46 1
59 45 51 1
60 46 47 2
61 46 52 1
62 47 48 1
63 48 49 2
64 48 53 1
65 49 54 1
66 55 56 2
67 55 60 1
68 55 61 1
69 56 57 1
70 56 62 1
71 57 58 2
72 57 63 1
73 58 59 1
74 59 60 2
75 59 64 1
76 60 65 1
77 66 67 2
78 66 71 1
79 66 72 1
80 67 68 1
81 67 73 1
82 68 69 2
83 68 74 1
84 69 70 1
85 70 71 2
86 70 75 1
87 71 76 1
88 77 78 2
89 77 82 1
90 77 83 1
91 78 79 1
92 78 84 1
93 79 80 2
94 79 85 1
95 80 81 1
96 81 82 2
97 81 86 1
98 82 87 1
99 88 89 2
100 88 93 1
101 88 94 1
102 89 90 1
103 89 95 1
104 90 91 2
105 90 96 1
106 91 92 1
107 92 93 2
108 92 97 1
109 93 98 1
110 99 101 1
111 100 101 1
112 101 102 2
113 101 118 Ar
114 103 104 1
115 103 105 Ar
116 103 136 1
117 105 109 1
118 105 117 1
119 106 107 Ar
120 106 111 Ar
121 106 112 1
122 107 108 Ar
123 107 113 1
124 108 109 Ar
125 108 114 1
126 109 110 Ar
127 110 111 Ar
128 110 115 1
129 111 116 1
130 118 119 Ar
131 119 120 2
132 119 121 2
133 119 122 1
134 122 123 1
135 122 124 1
136 122 125 1
137 126 127 Ar
138 126 130 1
139 126 131 1
140 127 128 Ar
141 127 132 1
142 128 129 Ar
143 128 133 1
144 129 130 Ar
145 129 134 1
146 130 135 1
147 136 137 2
148 136 138 2
149 136 142 1
150 139 140 Ar
151 139 144 Ar
152 139 145 1
153 140 141 Ar
154 140 146 1
155 141 142 Ar
156 142 143 Ar
157 143 144 Ar
158 143 147 1
159 144 148 1
