# Title Card Required
# Created by GaussView 5.0.9
#

#
#

@<TRIPOS>MOLECULE
Molecule Name
148 159
SMALL
NO_CHARGES


@<TRIPOS>ATOM
1 C1    -3.2601     1.6276    -0.0667 C
2 C2    -3.0031     4.2129    -1.1950 C
3 C3    -1.7933     3.4800    -0.7638 C
4 C4    -1.9064     2.2165    -0.3063 C
5 H5    -2.9103     5.2006    -1.6264 H
6 C6    -3.7145    -2.2715     1.7244 C
7 C7    -3.0397    -2.1284     0.5751 C
8 C8    -2.7656    -0.7626     0.0550 C
9 C9    -3.3608     0.3088     0.6148 C
10 H10    -3.9196    -3.2589     2.1205 H
11 C11    -4.3589     2.2950    -0.4942 C
12 C12    -4.2128     3.6512    -1.0819 C
13 C13    -5.4259     4.3690    -1.5219 C
14 C14    -6.6284     3.7957    -1.4077 C
15 C15    -6.7837     2.4352    -0.8510 C
16 C16    -5.7308     1.7270    -0.4260 C
17 H17    -5.3498     5.3657    -1.9400 H
18 H18    -7.5089     4.3334    -1.7352 H
19 H19    -7.7743     2.0020    -0.7958 H
20 H20    -5.9022     0.7268    -0.0505 H
21 C21    -4.2251    -1.0876     2.4461 C
22 C22    -4.0741     0.1491     1.9169 C
23 C23    -4.5594     1.3277     2.6842 C
24 C24    -5.1711     1.1617     3.8626 C
25 C25    -5.3618    -0.1928     4.4157 C
26 C26    -4.9119    -1.2599     3.7468 C
27 H27    -4.4123     2.3310     2.3072 H
28 H28    -5.5209     2.0221     4.4182 H
29 H29    -5.8611    -0.3193     5.3676 H
30 H30    -5.0495    -2.2504     4.1624 H
31 Si31    -0.1211     4.3028    -0.9165 Si
32 Si32    -2.5754    -3.6446    -0.4106 Si
33 C33    -0.5691     8.7479    -2.3146 C
34 C34     0.1034     7.8815    -3.0816 C
35 C35     0.2512     6.4738    -2.6562 C
36 C36    -0.2992     6.0561    -1.5037 C
37 C37    -1.0326     7.0234    -0.6524 C
38 C38    -1.1627     8.2982    -1.0393 C
39 H39    -0.6768     9.7791    -2.6249 H
40 H40     0.5427     8.2100    -4.0146 H
41 H41     0.8142     5.8000    -3.2863 H
42 H42    -1.4687     6.7010     0.2851 H
43 H43    -1.7010     9.0023    -0.4182 H
44 C44     2.0625     4.6744     3.2113 C
45 C45     0.8465     4.1191     3.1580 C
46 C46     0.1444     3.9960     1.8638 C
47 C47     0.7350     4.4154     0.7313 C
48 C48     2.0778     5.0403     0.7999 C
49 C49     2.7085     5.1569     1.9746 C
50 H50     2.5722     4.7778     4.1600 H
51 H51     0.3704     3.7660     4.0636 H
52 H52    -0.8517     3.5775     1.8570 H
53 H53     2.5547     5.4041    -0.1018 H
54 H54     3.6904     5.6095     2.0218 H
55 C55     2.3335     1.7420    -3.9781 C
56 C56     1.1426     2.2461    -4.3209 C
57 C57     0.3740     3.0543    -3.3516 C
58 C58     0.8668     3.2896    -2.1236 C
59 C59     2.1782     2.7087    -1.7419 C
60 C60     2.8753     1.9847    -2.6265 C
61 H61     2.8981     1.1493    -4.6860 H
62 H62     0.7396     2.0637    -5.3086 H
63 H63    -0.5881     3.4539    -3.6482 H
64 H64     2.5780     2.8508    -0.7482 H
65 H65     3.8330     1.5662    -2.3516 H
66 C66    -2.0781    -2.3406    -4.8933 C
67 C67    -3.2709    -2.2523    -4.2957 C
68 C68    -3.4272    -2.6740    -2.8886 C
69 C69    -2.3782    -3.1600    -2.2022 C
70 C70    -1.0540    -3.2363    -2.8680 C
71 C71    -0.9158    -2.8539    -4.1436 C
72 H72    -1.9610    -2.0302    -5.9235 H
73 H73    -4.1241    -1.8688    -4.8401 H
74 H74    -4.3956    -2.5643    -2.4246 H
75 H75    -0.1859    -3.5797    -2.3280 H
76 H76     0.0492    -2.9121    -4.6284 H
77 C77    -6.1614    -6.6521    -0.0400 C
78 C78    -4.9095    -7.0929     0.1257 C
79 C79    -3.7719    -6.1561     0.0132 C
80 C80    -3.9855    -4.8594    -0.2719 C
81 C81    -5.3797    -4.3751    -0.4324 C
82 C82    -6.4080    -5.2253    -0.3257 C
83 H83    -6.9952    -7.3371     0.0435 H
84 H84    -4.7263    -8.1373     0.3429 H
85 H85    -2.7762    -6.5434     0.1651 H
86 H86    -5.5787    -3.3263    -0.6068 H
87 H87    -7.4232    -4.8665    -0.4353 H
88 C88     1.3650    -5.5315     1.2974 C
89 C89     0.8338    -6.0061     0.1652 C
90 C90    -0.4073    -5.4142    -0.3754 C
91 C91    -1.0075    -4.3949     0.2632 C
92 C92    -0.4248    -3.8897     1.5282 C
93 C93     0.6999    -4.4272     2.0165 C
94 H94     2.2785    -5.9581     1.6907 H
95 H95     1.3165    -6.8183    -0.3626 H
96 H96    -0.8199    -5.8120    -1.2943 H
97 H97    -0.9088    -3.0918     2.0705 H
98 H98     1.1216    -4.0578     2.9422 H
99 O99    -0.7795     1.5422     0.0892 O
100 O100    -1.9136    -0.5917    -1.0057 O
101 P101    -0.4839     0.0856    -0.5874 P
102 O102     0.3393     0.1520    -1.8351 O
103 N103     4.0930    -1.3815     0.6142 N
104 H104     3.3628    -1.4198     1.3467 H
105 C105     4.2407    -2.4958    -0.1772 C
106 C106     7.2453    -2.7518    -3.2068 C
107 C107     6.5161    -1.5723    -3.0625 C
108 C108     5.5349    -1.4682    -2.0773 C
109 C109     5.2820    -2.5503    -1.2185 C
110 C110     6.0096    -3.7409    -1.3832 C
111 C111     6.9911    -3.8375    -2.3625 C
112 H112     8.0114    -2.8281    -3.9725 H
113 H113     6.7127    -0.7255    -3.7125 H
114 H114     4.9809    -0.5448    -1.9605 H
115 H115     5.8153    -4.5835    -0.7249 H
116 H116     7.5615    -4.7554    -2.4671 H
117 H117     4.0810    -3.4313     0.3572 H
118 N118     0.1088    -0.8254     0.6343 N
119 S119     1.0013    -0.2895     1.8186 S
120 O120     1.6709     1.0042     1.6122 O
121 O121     1.8548    -1.4009     2.3243 O
122 C122    -0.1604     0.0214     3.2548 C
123 F123    -0.7769    -1.1014     3.6377 F
124 F124     0.5416     0.5003     4.2907 F
125 F125    -1.0924     0.9222     2.9172 F
126 C126     2.4335    -2.7461    -1.1498 C
127 C127     2.6984    -3.9057    -1.9514 C
128 C128     2.7928    -3.5089    -3.2700 C
129 C129     2.4866    -2.1277    -3.2957 C
130 N130     2.2449    -1.6978    -2.0576 N
131 H131     1.8367    -2.7132    -0.2445 H
132 H132     2.9013    -4.8931    -1.5599 H
133 H133     3.0601    -4.1111    -4.1260 H
134 H134     2.4057    -1.4584    -4.1415 H
135 H135     1.6966    -0.8277    -1.8543 H
136 S136     5.2572    -0.1254     0.8925 S
137 O137     6.5933    -0.7090     0.7932 O
138 O138     4.9170     1.0583     0.1023 O
139 C139     4.3362     0.6374     5.2328 C
140 C140     4.8539    -0.5698     4.7553 C
141 N141     5.1160    -0.7843     3.4634 N
142 C142     4.8508     0.2124     2.6294 C
143 C143     4.3274     1.4541     2.9717 C
144 C144     4.0707     1.6619     4.3281 C
145 H145     4.1393     0.7618     6.2925 H
146 H146     5.0638    -1.3940     5.4325 H
147 H147     4.1091     2.1929     2.2123 H
148 H148     3.6582     2.6046     4.6693 H
@<TRIPOS>BOND
1 1 4 1
2 1 9 1
3 1 11 2
4 2 3 1
5 2 5 1
6 2 12 2
7 3 4 2
8 3 31 1
9 4 99 1
10 6 7 2
11 6 10 1
12 6 21 1
13 7 8 1
14 7 32 1
15 8 9 2
16 8 100 1
17 9 22 1
18 11 12 1
19 11 16 1
20 12 13 1
21 13 14 2
22 13 17 1
23 14 15 1
24 14 18 1
25 15 16 2
26 15 19 1
27 16 20 1
28 21 22 2
29 21 26 1
30 22 23 1
31 23 24 2
32 23 27 1
33 24 25 1
34 24 28 1
35 25 26 2
36 25 29 1
37 26 30 1
38 31 36 1
39 31 47 1
40 31 58 1
41 32 69 1
42 32 80 1
43 32 91 1
44 33 34 2
45 33 38 1
46 33 39 1
47 34 35 1
48 34 40 1
49 35 36 2
50 35 41 1
51 36 37 1
52 37 38 2
53 37 42 1
54 38 43 1
55 44 45 2
56 44 49 1
57 44 50 1
58 45 46 1
59 45 51 1
60 46 47 2
61 46 52 1
62 47 48 1
63 48 49 2
64 48 53 1
65 49 54 1
66 55 56 2
67 55 60 1
68 55 61 1
69 56 57 1
70 56 62 1
71 57 58 2
72 57 63 1
73 58 59 1
74 59 60 2
75 59 64 1
76 60 65 1
77 66 67 2
78 66 71 1
79 66 72 1
80 67 68 1
81 67 73 1
82 68 69 2
83 68 74 1
84 69 70 1
85 70 71 2
86 70 75 1
87 71 76 1
88 77 78 2
89 77 82 1
90 77 83 1
91 78 79 1
92 78 84 1
93 79 80 2
94 79 85 1
95 80 81 1
96 81 82 2
97 81 86 1
98 82 87 1
99 88 89 2
100 88 93 1
101 88 94 1
102 89 90 1
103 89 95 1
104 90 91 2
105 90 96 1
106 91 92 1
107 92 93 2
108 92 97 1
109 93 98 1
110 99 101 1
111 100 101 1
112 101 102 2
113 101 118 Ar
114 103 104 1
115 103 105 Ar
116 103 136 1
117 105 109 1
118 105 117 1
119 106 107 Ar
120 106 111 Ar
121 106 112 1
122 107 108 Ar
123 107 113 1
124 108 109 Ar
125 108 114 1
126 109 110 Ar
127 110 111 Ar
128 110 115 1
129 111 116 1
130 118 119 Ar
131 119 120 2
132 119 121 2
133 119 122 1
134 122 123 1
135 122 124 1
136 122 125 1
137 126 127 Ar
138 126 130 1
139 126 131 1
140 127 128 2
141 127 132 1
142 128 129 Ar
143 128 133 1
144 129 130 Ar
145 129 134 1
146 130 135 1
147 136 137 2
148 136 138 2
149 136 142 1
150 139 140 Ar
151 139 144 Ar
152 139 145 1
153 140 141 Ar
154 140 146 1
155 141 142 Ar
156 142 143 Ar
157 143 144 Ar
158 143 147 1
159 144 148 1
