# Title Card Required
# Created by GaussView 5.0.9
#

#
#

@<TRIPOS>MOLECULE
Molecule Name
148 158
SMALL
NO_CHARGES


@<TRIPOS>ATOM
1 C1    -2.8791     2.3482    -0.1035 C
2 C2    -5.3557     1.3366     0.8262 C
3 C3    -4.2448     0.4022     0.5436 C
4 C4    -3.0394     0.8874     0.1781 C
5 H5    -6.3163     0.9537     1.1431 H
6 C6     0.7497     3.9284    -1.8229 C
7 C7     0.7932     3.2767    -0.6516 C
8 C8    -0.4442     2.6140    -0.1484 C
9 C9    -1.6284     2.8269    -0.7560 C
10 H10     1.6330     4.3994    -2.2258 H
11 C11    -3.8825     3.1988     0.2208 C
12 C12    -5.1788     2.6574     0.7025 C
13 C13    -6.2753     3.6006     1.0001 C
14 C14    -6.0909     4.9173     0.8577 C
15 C15    -4.7956     5.4697     0.4081 C
16 C16    -3.7599     4.6759     0.1117 C
17 H17    -7.2374     3.2321     1.3361 H
18 H18    -6.9031     5.5971     1.0809 H
19 H19    -4.6845     6.5433     0.3251 H
20 H20    -2.8282     5.1363    -0.1902 H
21 C21    -0.5104     4.0265    -2.5873 C
22 C22    -1.6540     3.5095    -2.0835 C
23 C23    -2.8954     3.5679    -2.9027 C
24 C24    -2.8872     4.1622    -4.1013 C
25 C25    -1.6433     4.7564    -4.6263 C
26 C26    -0.5151     4.6899    -3.9117 C
27 H27    -3.8133     3.1179    -2.5489 H
28 H28    -3.7920     4.2002    -4.6942 H
29 H29    -1.6451     5.2388    -5.5952 H
30 H30     0.3962     5.1205    -4.3077 H
31 Si31    -4.5351    -1.4385     0.7059 Si
32 Si32     2.3862     3.2592     0.3454 Si
33 C33    -3.7407    -3.5272    -3.4249 C
34 C34    -4.0358    -4.2628    -2.3475 C
35 C35    -4.3099    -3.6039    -1.0537 C
36 C36    -4.2352    -2.2660    -0.9427 C
37 C37    -3.9553    -1.4555    -2.1539 C
38 C38    -3.7120    -2.0547    -3.3261 C
39 H39    -3.5354    -4.0080    -4.3726 H
40 H40    -4.0685    -5.3422    -2.4189 H
41 H41    -4.5567    -4.2177    -0.1963 H
42 H42    -3.9618    -0.3759    -2.1080 H
43 H43    -3.5059    -1.4607    -4.2070 H
44 C44    -1.6304    -3.0592     4.0216 C
45 C45    -2.3946    -1.9882     4.2583 C
46 C46    -3.2854    -1.4663     3.2014 C
47 C47    -3.3478    -2.0705     2.0017 C
48 C48    -2.4453    -3.2187     1.7274 C
49 C49    -1.6468    -3.6951     2.6902 C
50 H50    -0.9796    -3.4454     4.7953 H
51 H51    -2.3673    -1.5048     5.2262 H
52 H52    -3.8723    -0.5836     3.4124 H
53 H53    -2.4027    -3.6731     0.7504 H
54 H54    -0.9915    -4.5324     2.4874 H
55 C55    -8.9540    -2.3008     2.0586 C
56 C56    -8.5516    -2.6480     0.8316 C
57 C57    -7.1645    -2.3755     0.4011 C
58 C58    -6.2931    -1.7865     1.2405 C
59 C59    -6.7548    -1.3919     2.5957 C
60 C60    -8.0129    -1.6378     2.9814 C
61 H61    -9.9700    -2.4988     2.3748 H
62 H62    -9.2414    -3.1288     0.1501 H
63 H63    -6.8797    -2.6515    -0.6040 H
64 H64    -6.0909    -0.8862     3.2787 H
65 H65    -8.3459    -1.3435     3.9684 H
66 C66     5.5823     0.4127    -1.5571 C
67 C67     4.3673     0.5070    -2.1094 C
68 C68     3.3444     1.3845    -1.5034 C
69 C69     3.6266     2.0880    -0.3961 C
70 C70     4.9772     1.9851     0.2076 C
71 C71     5.9020     1.1878    -0.3412 C
72 H72     6.3300    -0.2356    -1.9951 H
73 H73     4.1290    -0.0632    -2.9979 H
74 H74     2.3778     1.4590    -1.9754 H
75 H75     5.2201     2.5541     1.0963 H
76 H76     6.8846     1.1074     0.1052 H
77 C77     1.2786     2.0421     4.7367 C
78 C78     2.1789     1.3227     4.0578 C
79 C79     2.5467     1.7054     2.6785 C
80 C80     1.9968     2.7892     2.1071 C
81 C81     0.9971     3.5816     2.8664 C
82 C82     0.6560     3.2251     4.1104 C
83 H83     1.0051     1.7594     5.7450 H
84 H84     2.6379     0.4582     4.5178 H
85 H85     3.2491     1.0889     2.1401 H
86 H86     0.5244     4.4417     2.4084 H
87 H87    -0.0792     3.8001     4.6581 H
88 C88     4.4986     7.4517     0.2236 C
89 C89     4.4783     6.6743    -0.8642 C
90 C90     3.8119     5.3566    -0.8202 C
91 C91     3.2020     4.9375     0.3031 C
92 C92     3.2539     5.7958     1.5140 C
93 C93     3.8630     6.9875     1.4720 C
94 H94     4.9881     8.4165     0.1940 H
95 H95     4.9525     7.0070    -1.7785 H
96 H96     3.8449     4.7318    -1.7032 H
97 H97     2.8168     5.4695     2.4447 H
98 H98     3.9000     7.6100     2.3568 H
99 O99    -2.0208     0.0122    -0.1037 O
100 O100    -0.3912     1.8186     0.9644 O
101 P101    -0.5943     0.2247     0.6654 P
102 O102    -0.5044    -0.4519     1.9879 O
103 N103     3.5866    -2.3461    -0.7066 N
104 H104     2.7478    -2.0199    -1.2782 H
105 C105     3.7743    -1.7755     0.4631 C
106 C106     7.1847    -1.5664     2.9588 C
107 C107     5.9212    -1.2306     3.4500 C
108 C108     4.8092    -1.3339     2.6248 C
109 C109     4.9476    -1.8001     1.3005 C
110 C110     6.2293    -2.1394     0.8136 C
111 C111     7.3359    -2.0144     1.6416 C
112 H112     8.0572    -1.4677     3.5977 H
113 H113     5.8041    -0.8835     4.4713 H
114 H114     3.8227    -1.0925     2.9998 H
115 H115     6.3663    -2.4389    -0.2185 H
116 H116     8.3221    -2.2543     1.2582 H
117 H117     2.9750    -1.0834     0.7276 H
118 N118     0.5196    -0.1748    -0.4785 N
119 S119     0.2851    -1.1325    -1.7064 S
120 O120    -0.6826    -2.2258    -1.5429 O
121 O121     1.6254    -1.5106    -2.2583 O
122 C122    -0.3736    -0.1161    -3.1444 C
123 F123    -1.5417     0.4610    -2.8443 F
124 F124     0.4921     0.8446    -3.4835 F
125 F125    -0.5522    -0.9246    -4.1954 F
126 C126     1.7536    -3.2163     1.9967 C
127 C127     2.6160    -4.0946     2.6414 C
128 C128     2.7272    -3.6580     3.9827 C
129 C129     1.9203    -2.5336     4.1157 C
130 N130     1.3425    -2.2726     2.9068 N
131 H131     1.3280    -3.2555     1.0057 H
132 H132     3.1088    -4.9384     2.1807 H
133 H133     3.3213    -4.1058     4.7670 H
134 H134     1.7096    -1.9167     4.9774 H
135 H135     0.6456    -1.5460     2.6887 H
136 S136     4.3240    -3.8114    -1.3605 S
137 O137     5.3174    -3.4105    -2.3560 O
138 O138     4.6845    -4.6619    -0.2332 O
139 C139     0.5733    -5.2476    -3.3750 C
140 C140     0.6804    -5.0514    -1.9939 C
141 N141     1.8145    -4.6534    -1.4117 N
142 C142     2.8453    -4.4224    -2.2111 C
143 C143     2.8715    -4.5730    -3.5913 C
144 C144     1.6837    -5.0135    -4.1815 C
145 H145    -0.3721    -5.5635    -3.8023 H
146 H146    -0.1714    -5.2006    -1.3384 H
147 H147     3.7616    -4.3426    -4.1635 H
148 H148     1.6278    -5.1517    -5.2565 H
@<TRIPOS>BOND
1 1 4 1
2 1 9 1
3 1 11 2
4 2 3 1
5 2 5 1
6 2 12 2
7 3 4 2
8 3 31 1
9 4 99 1
10 6 7 2
11 6 10 1
12 6 21 1
13 7 8 1
14 7 32 1
15 8 9 2
16 8 100 1
17 9 22 1
18 11 12 1
19 11 16 1
20 12 13 1
21 13 14 2
22 13 17 1
23 14 15 1
24 14 18 1
25 15 16 2
26 15 19 1
27 16 20 1
28 21 22 2
29 21 26 1
30 22 23 1
31 23 24 2
32 23 27 1
33 24 25 1
34 24 28 1
35 25 26 2
36 25 29 1
37 26 30 1
38 31 36 1
39 31 47 1
40 31 58 1
41 32 69 1
42 32 80 1
43 32 91 1
44 33 34 2
45 33 38 1
46 33 39 1
47 34 35 1
48 34 40 1
49 35 36 2
50 35 41 1
51 36 37 1
52 37 38 2
53 37 42 1
54 38 43 1
55 44 45 2
56 44 49 1
57 44 50 1
58 45 46 1
59 45 51 1
60 46 47 2
61 46 52 1
62 47 48 1
63 48 49 2
64 48 53 1
65 49 54 1
66 55 56 2
67 55 60 1
68 55 61 1
69 56 57 1
70 56 62 1
71 57 58 2
72 57 63 1
73 58 59 1
74 59 60 2
75 59 64 1
76 60 65 1
77 66 67 2
78 66 71 1
79 66 72 1
80 67 68 1
81 67 73 1
82 68 69 2
83 68 74 1
84 69 70 1
85 70 71 2
86 70 75 1
87 71 76 1
88 77 78 2
89 77 82 1
90 77 83 1
91 78 79 1
92 78 84 1
93 79 80 2
94 79 85 1
95 80 81 1
96 81 82 2
97 81 86 1
98 82 87 1
99 88 89 2
100 88 93 1
101 88 94 1
102 89 90 1
103 89 95 1
104 90 91 2
105 90 96 1
106 91 92 1
107 92 93 2
108 92 97 1
109 93 98 1
110 99 101 1
111 100 101 1
112 101 102 2
113 101 118 1
114 103 105 2
115 103 136 1
116 105 109 Ar
117 105 117 1
118 106 107 Ar
119 106 111 Ar
120 106 112 1
121 107 108 Ar
122 107 113 1
123 108 109 Ar
124 108 114 1
125 109 110 Ar
126 110 111 Ar
127 110 115 1
128 111 116 1
129 118 119 Ar
130 119 120 2
131 119 121 2
132 119 122 1
133 122 123 1
134 122 124 1
135 122 125 1
136 126 127 Ar
137 126 130 Ar
138 126 131 1
139 127 128 Ar
140 127 132 1
141 128 129 Ar
142 128 133 1
143 129 130 Ar
144 129 134 1
145 130 135 1
146 136 137 2
147 136 138 2
148 136 142 1
149 139 140 Ar
150 139 144 Ar
151 139 145 1
152 140 141 Ar
153 140 146 1
154 141 142 Ar
155 142 143 Ar
156 143 144 Ar
157 143 147 1
158 144 148 1
