# Title Card Required
# Created by GaussView 5.0.9
#

#
#

@<TRIPOS>MOLECULE
Molecule Name
148 159
SMALL
NO_CHARGES


@<TRIPOS>ATOM
1 C1    -2.7097     2.3147    -0.2928 C
2 C2    -5.2166     1.4092     0.6593 C
3 C3    -4.1252     0.4368     0.4348 C
4 C4    -2.9032     0.8734     0.0604 C
5 H5    -6.1889     1.0652     0.9849 H
6 C6     0.8982     3.9484    -1.9664 C
7 C7     0.9384     3.2882    -0.7993 C
8 C8    -0.2743     2.5566    -0.3343 C
9 C9    -1.4512     2.7399    -0.9626 C
10 H10     1.7578     4.4943    -2.3247 H
11 C11    -3.6938     3.2041    -0.0132 C
12 C12    -5.0071     2.7174     0.4778 C
13 C13    -6.0839     3.6984     0.7199 C
14 C14    -5.8655     5.0028     0.5241 C
15 C15    -4.5509     5.5039     0.0713 C
16 C16    -3.5322     4.6729    -0.1783 C
17 H17    -7.0589     3.3678     1.0580 H
18 H18    -6.6635     5.7109     0.7071 H
19 H19    -4.4107     6.5703    -0.0514 H
20 H20    -2.5844     5.0990    -0.4800 H
21 C21    -0.3369     3.9696    -2.7757 C
22 C22    -1.4687     3.4040    -2.2993 C
23 C23    -2.6905     3.4031    -3.1483 C
24 C24    -2.6776     3.9889    -4.3511 C
25 C25    -1.4474     4.6336    -4.8491 C
26 C26    -0.3362     4.6233    -4.1048 C
27 H27    -3.5966     2.9176    -2.8104 H
28 H28    -3.5681     3.9844    -4.9663 H
29 H29    -1.4455     5.1092    -5.8214 H
30 H30     0.5648     5.0926    -4.4799 H
31 Si31    -4.4672    -1.3809     0.7049 Si
32 Si32     2.4404     3.4304     0.3097 Si
33 C33    -3.6882    -3.7643    -3.2655 C
34 C34    -4.0461    -4.4144    -2.1525 C
35 C35    -4.3105    -3.6623    -0.9084 C
36 C36    -4.1643    -2.3263    -0.8776 C
37 C37    -3.8165    -1.6091    -2.1295 C
38 C38    -3.5806    -2.2922    -3.2563 C
39 H39    -3.4909    -4.3135    -4.1769 H
40 H40    -4.1383    -5.4927    -2.1590 H
41 H41    -4.6167    -4.2068    -0.0238 H
42 H42    -3.7695    -0.5300    -2.1512 H
43 H43    -3.3243    -1.7660    -4.1668 H
44 C44    -1.7761    -2.8549     4.2534 C
45 C45    -2.4289    -1.6915     4.3387 C
46 C46    -3.2448    -1.2166     3.2028 C
47 C47    -3.3418    -1.9494     2.0796 C
48 C48    -2.5554    -3.2040     1.9675 C
49 C49    -1.8328    -3.6415     3.0057 C
50 H50    -1.1869    -3.2105     5.0885 H
51 H51    -2.3728    -1.1022     5.2446 H
52 H52    -3.7631    -0.2717     3.2983 H
53 H53    -2.5441    -3.7744     1.0525 H
54 H54    -1.2633    -4.5584     2.9233 H
55 C55    -8.9356    -2.0002     2.0165 C
56 C56    -8.5389    -2.3823     0.7978 C
57 C57    -7.1345    -2.1895     0.3806 C
58 C58    -6.2431    -1.6383     1.2242 C
59 C59    -6.6961    -1.2074     2.5711 C
60 C60    -7.9698    -1.3808     2.9445 C
61 H61    -9.9643    -2.1395     2.3228 H
62 H62    -9.2463    -2.8320     0.1131 H
63 H63    -6.8519    -2.4892    -0.6188 H
64 H64    -6.0097    -0.7384     3.2591 H
65 H65    -8.2965    -1.0619     3.9259 H
66 C66     5.6344     0.1539    -0.6842 C
67 C67     4.5249     0.2476    -1.4259 C
68 C68     3.4931     1.2516    -1.0940 C
69 C69     3.6685     2.0824    -0.0538 C
70 C70     4.9164     1.9965     0.7435 C
71 C71     5.8400     1.0721     0.4533 C
72 H72     6.3849    -0.5894    -0.9199 H
73 H73     4.3793    -0.4144    -2.2695 H
74 H74     2.6156     1.3206    -1.7208 H
75 H75     5.0863     2.6818     1.5644 H
76 H76     6.7443     1.0029     1.0439 H
77 C77     0.7256     3.2687     4.6684 C
78 C78     1.7208     2.4448     4.3208 C
79 C79     2.2895     2.5041     2.9585 C
80 C80     1.8173     3.3868     2.0648 C
81 C81     0.7143     4.2987     2.4573 C
82 C82     0.1973     4.2409     3.6905 C
83 H83     0.3050     3.2237     5.6646 H
84 H84     2.1073     1.7282     5.0338 H
85 H85     3.0784     1.8195     2.6991 H
86 H86     0.3150     5.0078     1.7427 H
87 H87    -0.6109     4.9032     3.9724 H
88 C88     4.7789     7.4282    -0.4320 C
89 C89     4.8069     6.4521    -1.3461 C
90 C90     4.0668     5.1954    -1.1101 C
91 C91     3.3472     5.0308     0.0137 C
92 C92     3.3373     6.1108     1.0320 C
93 C93     4.0126     7.2468     0.8168 C
94 H94     5.3216     8.3490    -0.6024 H
95 H95     5.3730     6.5795    -2.2597 H
96 H96     4.1220     4.4109    -1.8546 H
97 H97     2.7943     5.9928     1.9583 H
98 H98     4.0038     8.0331     1.5606 H
99 O99    -1.9027    -0.0412    -0.1603 O
100 O100    -0.2205     1.7919     0.8028 O
101 P101    -0.4524     0.1930     0.5545 P
102 O102    -0.3363    -0.4365     1.9070 O
103 N103     3.5367    -2.6521    -0.5384 N
104 H104     2.9002    -2.2957    -1.2848 H
105 C105     3.2349    -2.1595     0.7019 C
106 C106     5.9015    -1.0886     3.8576 C
107 C107     4.6205    -0.5479     3.7730 C
108 C108     3.7639    -0.9522     2.7507 C
109 C109     4.1761    -1.9025     1.7962 C
110 C110     5.4674    -2.4531     1.9020 C
111 C111     6.3182    -2.0402     2.9204 C
112 H112     6.5776    -0.7687     4.6448 H
113 H113     4.2896     0.1970     4.4898 H
114 H114     2.7762    -0.5140     2.6645 H
115 H115     5.8084    -3.1948     1.1927 H
116 H116     7.3181    -2.4585     2.9805 H
117 H117     2.4908    -1.3737     0.5783 H
118 N118     0.6363    -0.2786    -0.5695 N
119 S119     0.4168    -1.2428    -1.8025 S
120 O120    -0.5744    -2.3154    -1.6334 O
121 O121     1.7511    -1.6438    -2.3274 O
122 C122    -0.2054    -0.1895    -3.2225 C
123 F123    -1.4101     0.3291    -2.9562 F
124 F124     0.6433     0.8180    -3.4561 F
125 F125    -0.2980    -0.9436    -4.3221 F
126 C126     1.6628    -3.4093     1.5370 C
127 C127     2.3766    -4.4525     2.1924 C
128 C128     2.3618    -4.1822     3.5537 C
129 C129     1.5847    -3.0207     3.7300 C
130 N130     1.1300    -2.6045     2.5398 N
131 H131     1.1582    -3.4761     0.5828 H
132 H132     2.8849    -5.2554     1.6815 H
133 H133     2.8561    -4.7332     4.3406 H
134 H134     1.3440    -2.4851     4.6380 H
135 H135     0.5216    -1.7771     2.3537 H
136 S136     4.3797    -4.0415    -1.0514 S
137 O137     5.4746    -3.6327    -1.9291 O
138 O138     4.6470    -4.8856     0.1160 O
139 C139     1.0898    -5.8015    -3.5809 C
140 C140     0.9405    -5.5032    -2.2232 C
141 N141     1.9336    -5.0048    -1.4808 N
142 C142     3.0874    -4.7779    -2.0954 C
143 C143     3.3609    -5.0276    -3.4350 C
144 C144     2.3185    -5.5659    -4.1929 C
145 H145     0.2514    -6.1994    -4.1424 H
146 H146    -0.0084    -5.6566    -1.7177 H
147 H147     4.3320    -4.7942    -3.8539 H
148 H148     2.4641    -5.7816    -5.2466 H
@<TRIPOS>BOND
1 1 4 1
2 1 9 1
3 1 11 2
4 2 3 1
5 2 5 1
6 2 12 2
7 3 4 2
8 3 31 1
9 4 99 1
10 6 7 2
11 6 10 1
12 6 21 1
13 7 8 1
14 7 32 1
15 8 9 2
16 8 100 1
17 9 22 1
18 11 12 1
19 11 16 1
20 12 13 1
21 13 14 2
22 13 17 1
23 14 15 1
24 14 18 1
25 15 16 2
26 15 19 1
27 16 20 1
28 21 22 2
29 21 26 1
30 22 23 1
31 23 24 2
32 23 27 1
33 24 25 1
34 24 28 1
35 25 26 2
36 25 29 1
37 26 30 1
38 31 36 1
39 31 47 1
40 31 58 1
41 32 69 1
42 32 80 1
43 32 91 1
44 33 34 2
45 33 38 1
46 33 39 1
47 34 35 1
48 34 40 1
49 35 36 2
50 35 41 1
51 36 37 1
52 37 38 2
53 37 42 1
54 38 43 1
55 44 45 2
56 44 49 1
57 44 50 1
58 45 46 1
59 45 51 1
60 46 47 2
61 46 52 1
62 47 48 1
63 48 49 2
64 48 53 1
65 49 54 1
66 55 56 2
67 55 60 1
68 55 61 1
69 56 57 1
70 56 62 1
71 57 58 2
72 57 63 1
73 58 59 1
74 59 60 2
75 59 64 1
76 60 65 1
77 66 67 2
78 66 71 1
79 66 72 1
80 67 68 1
81 67 73 1
82 68 69 2
83 68 74 1
84 69 70 1
85 70 71 2
86 70 75 1
87 71 76 1
88 77 78 2
89 77 82 1
90 77 83 1
91 78 79 1
92 78 84 1
93 79 80 2
94 79 85 1
95 80 81 1
96 81 82 2
97 81 86 1
98 82 87 1
99 88 89 2
100 88 93 1
101 88 94 1
102 89 90 1
103 89 95 1
104 90 91 2
105 90 96 1
106 91 92 1
107 92 93 2
108 92 97 1
109 93 98 1
110 99 101 1
111 100 101 1
112 101 102 2
113 101 118 Ar
114 103 104 1
115 103 105 Ar
116 103 136 1
117 105 109 1
118 105 117 1
119 106 107 Ar
120 106 111 Ar
121 106 112 1
122 107 108 Ar
123 107 113 1
124 108 109 Ar
125 108 114 1
126 109 110 Ar
127 110 111 Ar
128 110 115 1
129 111 116 1
130 118 119 Ar
131 119 120 2
132 119 121 2
133 119 122 1
134 122 123 1
135 122 124 1
136 122 125 1
137 126 127 Ar
138 126 130 1
139 126 131 1
140 127 128 Ar
141 127 132 1
142 128 129 Ar
143 128 133 1
144 129 130 Ar
145 129 134 1
146 130 135 1
147 136 137 2
148 136 138 2
149 136 142 1
150 139 140 Ar
151 139 144 Ar
152 139 145 1
153 140 141 Ar
154 140 146 1
155 141 142 Ar
156 142 143 Ar
157 143 144 Ar
158 143 147 1
159 144 148 1
