# 
# Created by GaussView 5.0.9
#

#
#

@<TRIPOS>MOLECULE
Molecule Name
148 159
SMALL
NO_CHARGES


@<TRIPOS>ATOM
1 C1     1.1265     3.0863    -0.9304 C
2 C2    -0.8111     5.1245    -0.5308 C
3 C3    -1.1900     3.7121    -0.3324 C
4 C4    -0.2767     2.7333    -0.5088 C
5 H5    -1.5531     5.9032    -0.4244 H
6 C6     4.3704     0.3126    -1.4964 C
7 C7     3.6983     0.3408    -0.3364 C
8 C8     2.4479     1.1377    -0.2405 C
9 C9     2.1316     2.0189    -1.2111 C
10 H10     5.2737    -0.2788    -1.5916 H
11 C11     1.4793     4.3972    -0.9996 C
12 C12     0.4492     5.4524    -0.8265 C
13 C13     0.8398     6.8667    -0.9963 C
14 C14     2.1119     7.1906    -1.2460 C
15 C15     3.1620     6.1570    -1.3468 C
16 C16     2.8780     4.8550    -1.2269 C
17 H17     0.0982     7.6526    -0.9147 H
18 H18     2.3849     8.2315    -1.3631 H
19 H19     4.1867     6.4659    -1.5100 H
20 H20     3.6969     4.1501    -1.2748 H
21 C21     3.9131     1.1176    -2.6479 C
22 C22     2.8501     1.9441    -2.5181 C
23 C23     2.3799     2.7107    -3.7026 C
24 C24     3.0247     2.6107    -4.8708 C
25 C25     4.2031     1.7311    -4.9953 C
26 C26     4.6243     1.0209    -3.9432 C
27 H27     1.5067     3.3463    -3.6364 H
28 H28     2.6787     3.1693    -5.7309 H
29 H29     4.7214     1.6578    -5.9426 H
30 H30     5.4854     0.3721    -4.0438 H
31 Si31    -2.9320     3.3042     0.2216 Si
32 Si32     4.3987    -0.5688     1.1341 Si
33 C33    -2.9548     1.9887     4.7175 C
34 C34    -1.7888     2.2180     4.1033 C
35 C35    -1.7685     2.6351     2.6865 C
36 C36    -2.9181     2.7578     1.9997 C
37 C37    -4.2067     2.5079     2.6882 C
38 C38    -4.2230     2.1452     3.9764 C
39 H39    -2.9717     1.6846     5.7560 H
40 H40    -0.8577     2.1019     4.6430 H
41 H41    -0.8126     2.8379     2.2252 H
42 H42    -5.1406     2.6209     2.1517 H
43 H43    -5.1647     1.9612     4.4770 H
44 C44    -5.7608     7.0326     0.0378 C
45 C45    -4.7610     6.9903     0.9260 C
46 C46    -3.8681     5.8144     0.9798 C
47 C47    -4.0465     4.7888     0.1299 C
48 C48    -5.1652     4.8355    -0.8432 C
49 C49    -5.9745     5.9013    -0.8872 C
50 H50    -6.4164     7.8929    -0.0027 H
51 H51    -4.6043     7.8164     1.6075 H
52 H52    -3.0700     5.7950     1.7119 H
53 H53    -5.3403     4.0126    -1.5221 H
54 H54    -6.7898     5.9352    -1.5982 H
55 C55    -4.4139    -0.1471    -2.5821 C
56 C56    -3.8891     0.9672    -3.1047 C
57 C57    -3.4455     2.0633    -2.2183 C
58 C58    -3.5593     1.9443    -0.8846 C
59 C59    -4.1272     0.6993    -0.3112 C
60 C60    -4.5481    -0.2819    -1.1184 C
61 H61    -4.7366    -0.9526    -3.2290 H
62 H62    -3.7851     1.0672    -4.1773 H
63 H63    -3.0160     2.9541    -2.6601 H
64 H64    -4.2110     0.5708     0.7580 H
65 H65    -4.9804    -1.1808    -0.6994 H
66 C66     4.0828    -5.1011     0.0084 C
67 C67     5.2904    -4.5433     0.1573 C
68 C68     5.4082    -3.1152     0.5210 C
69 C69     4.3035    -2.3758     0.7161 C
70 C70     2.9717    -2.9968     0.5387 C
71 C71     2.8660    -4.2889     0.2074 C
72 H72     3.9951    -6.1459    -0.2598 H
73 H73     6.1839    -5.1355     0.0078 H
74 H74     6.3951    -2.6828     0.6076 H
75 H75     2.0809    -2.4058     0.6882 H
76 H76     1.8907    -4.7409     0.0828 H
77 C77     2.0741     0.4727     5.0646 C
78 C78     2.6487     1.4412     4.3431 C
79 C79     3.3969     1.1031     3.1153 C
80 C80     3.4748    -0.1725     2.6978 C
81 C81     2.8562    -1.2444     3.5145 C
82 C82     2.1973    -0.9356     4.6387 C
83 H83     1.5248     0.7176     5.9644 H
84 H84     2.5644     2.4741     4.6550 H
85 H85     3.8567     1.9015     2.5453 H
86 H86     2.9479    -2.2816     3.2237 H
87 H87     1.7631    -1.7170     5.2467 H
88 C88     8.7892     0.7855     2.0580 C
89 C89     8.2366    -0.2245     2.7395 C
90 C90     6.8524    -0.6480     2.4428 C
91 C91     6.1493    -0.0370     1.4741 C
92 C92     6.7592     1.0996     0.7399 C
93 C93     8.0118     1.4840     1.0149 C
94 H94     9.8025     1.0981     2.2749 H
95 H95     8.8015    -0.7336     3.5096 H
96 H96     6.4193    -1.4608     3.0130 H
97 H97     6.1961     1.6422    -0.0060 H
98 H98     8.4541     2.3156     0.4816 H
99 O99    -0.7095     1.4343    -0.4038 O
100 O100     1.5973     0.9602     0.8155 O
101 P101     0.1613     0.3147     0.3697 P
102 O102    -0.5120    -0.1184     1.6375 O
103 N103    -2.8620    -2.8705    -0.2787 N
104 H104    -2.2762    -2.4485    -1.0340 H
105 C105    -2.4348    -2.5264     0.9897 C
106 C106    -4.7817    -2.6989     4.5719 C
107 C107    -4.0983    -1.5417     4.1982 C
108 C108    -3.3261    -1.5305     3.0389 C
109 C109    -3.2460    -2.6758     2.2238 C
110 C110    -3.9163    -3.8443     2.6217 C
111 C111    -4.6817    -3.8480     3.7857 C
112 H112    -5.3833    -2.7072     5.4761 H
113 H113    -4.1673    -0.6496     4.8111 H
114 H114    -2.7820    -0.6351     2.7516 H
115 H115    -3.8245    -4.7507     2.0369 H
116 H116    -5.1961    -4.7570     4.0819 H
117 H117    -1.9842    -1.5375     0.9358 H
118 N118     0.3990    -0.8808    -0.7120 N
119 S119    -0.1207    -0.9905    -2.2071 S
120 O120    -0.1327     0.2319    -3.0173 O
121 O121    -1.3069    -1.8894    -2.3137 O
122 C122     1.1932    -2.0937    -2.9349 C
123 F123     2.4182    -1.6091    -2.7279 F
124 F124     1.1164    -3.3201    -2.3945 F
125 F125     0.9865    -2.2014    -4.2540 F
126 C126    -0.6312    -3.3866     1.3358 C
127 C127    -0.7361    -4.7552     1.7424 C
128 C128    -0.5101    -4.8177     3.1060 C
129 C129    -0.2095    -3.5042     3.5335 C
130 N130    -0.2105    -2.6883     2.4840 N
131 H131    -0.2273    -3.0506     0.3858 H
132 H132    -0.9907    -5.5639     1.0744 H
133 H133    -0.5638    -5.6849     3.7475 H
134 H134    -0.0253    -3.1391     4.5341 H
135 H135    -0.1186    -1.6637     2.4488 H
136 S136    -3.6239    -4.3374    -0.7428 S
137 O137    -3.0384    -5.4501     0.0160 O
138 O138    -5.0750    -4.1427    -0.7266 O
139 C139    -2.2046    -4.6578    -5.0027 C
140 C140    -1.3991    -4.9357    -3.8945 C
141 N141    -1.8396    -4.8366    -2.6384 N
142 C142    -3.0925    -4.4331    -2.4744 C
143 C143    -3.9886    -4.1115    -3.4872 C
144 C144    -3.5171    -4.2402    -4.7956 C
145 H145    -1.8028    -4.7659    -6.0047 H
146 H146    -0.3639    -5.2423    -4.0174 H
147 H147    -4.9942    -3.7847    -3.2543 H
148 H148    -4.1666    -4.0164    -5.6358 H
@<TRIPOS>BOND
1 1 4 1
2 1 9 1
3 1 11 2
4 2 3 1
5 2 5 1
6 2 12 2
7 3 4 2
8 3 31 1
9 4 99 1
10 6 7 2
11 6 10 1
12 6 21 1
13 7 8 1
14 7 32 1
15 8 9 2
16 8 100 1
17 9 22 1
18 11 12 1
19 11 16 1
20 12 13 1
21 13 14 2
22 13 17 1
23 14 15 1
24 14 18 1
25 15 16 2
26 15 19 1
27 16 20 1
28 21 22 2
29 21 26 1
30 22 23 1
31 23 24 2
32 23 27 1
33 24 25 1
34 24 28 1
35 25 26 2
36 25 29 1
37 26 30 1
38 31 36 1
39 31 47 1
40 31 58 1
41 32 69 1
42 32 80 1
43 32 91 1
44 33 34 2
45 33 38 1
46 33 39 1
47 34 35 1
48 34 40 1
49 35 36 2
50 35 41 1
51 36 37 1
52 37 38 2
53 37 42 1
54 38 43 1
55 44 45 2
56 44 49 1
57 44 50 1
58 45 46 1
59 45 51 1
60 46 47 2
61 46 52 1
62 47 48 1
63 48 49 2
64 48 53 1
65 49 54 1
66 55 56 2
67 55 60 1
68 55 61 1
69 56 57 1
70 56 62 1
71 57 58 2
72 57 63 1
73 58 59 1
74 59 60 2
75 59 64 1
76 60 65 1
77 66 67 2
78 66 71 1
79 66 72 1
80 67 68 1
81 67 73 1
82 68 69 2
83 68 74 1
84 69 70 1
85 70 71 2
86 70 75 1
87 71 76 1
88 77 78 2
89 77 82 1
90 77 83 1
91 78 79 1
92 78 84 1
93 79 80 2
94 79 85 1
95 80 81 1
96 81 82 2
97 81 86 1
98 82 87 1
99 88 89 2
100 88 93 1
101 88 94 1
102 89 90 1
103 89 95 1
104 90 91 2
105 90 96 1
106 91 92 1
107 92 93 2
108 92 97 1
109 93 98 1
110 99 101 1
111 100 101 1
112 101 102 2
113 101 118 Ar
114 103 104 1
115 103 105 1
116 103 136 1
117 105 109 1
118 105 117 1
119 106 107 Ar
120 106 111 Ar
121 106 112 1
122 107 108 Ar
123 107 113 1
124 108 109 Ar
125 108 114 1
126 109 110 Ar
127 110 111 Ar
128 110 115 1
129 111 116 1
130 118 119 Ar
131 119 120 2
132 119 121 2
133 119 122 1
134 122 123 1
135 122 124 1
136 122 125 1
137 126 127 Ar
138 126 130 1
139 126 131 1
140 127 128 2
141 127 132 1
142 128 129 Ar
143 128 133 1
144 129 130 Ar
145 129 134 1
146 130 135 1
147 136 137 2
148 136 138 2
149 136 142 1
150 139 140 Ar
151 139 144 Ar
152 139 145 1
153 140 141 Ar
154 140 146 1
155 141 142 Ar
156 142 143 Ar
157 143 144 Ar
158 143 147 1
159 144 148 1
