# Title Card Required
# Created by GaussView 5.0.9
#

#
#

@<TRIPOS>MOLECULE
Molecule Name
148 159
SMALL
NO_CHARGES


@<TRIPOS>ATOM
1 C1     1.3076     3.0271    -1.0131 C
2 C2    -0.5463     5.1273    -0.5542 C
3 C3    -0.9768     3.7255    -0.3828 C
4 C4    -0.0981     2.7189    -0.5714 C
5 H5    -1.2529     5.9312    -0.3905 H
6 C6     4.3513     0.0190    -1.5560 C
7 C7     3.7111     0.1349    -0.3840 C
8 C8     2.5397     1.0434    -0.2854 C
9 C9     2.2713     1.9195    -1.2723 C
10 H10     5.1974    -0.6513    -1.6528 H
11 C11     1.7037     4.3243    -1.0918 C
12 C12     0.7170     5.4137    -0.8804 C
13 C13     1.1574     6.8153    -1.0309 C
14 C14     2.4345     7.0959    -1.3068 C
15 C15     3.4416     6.0255    -1.4549 C
16 C16     3.1119     4.7330    -1.3492 C
17 H17     0.4487     7.6268    -0.9152 H
18 H18     2.7441     8.1279    -1.4109 H
19 H19     4.4723     6.2989    -1.6417 H
20 H20     3.9015     3.9988    -1.4339 H
21 C21     3.9501     0.8444    -2.7147 C
22 C22     2.9700     1.7691    -2.5841 C
23 C23     2.5590     2.5606    -3.7746 C
24 C24     3.1787     2.3872    -4.9477 C
25 C25     4.2693     1.4012    -5.0725 C
26 C26     4.6345     0.6672    -4.0158 C
27 H27     1.7483     3.2741    -3.7094 H
28 H28     2.8758     2.9645    -5.8117 H
29 H29     4.7684     1.2694    -6.0238 H
30 H30     5.4313    -0.0592    -4.1168 H
31 Si31    -2.7192     3.3997     0.2146 Si
32 Si32     4.3662    -0.7884     1.1043 Si
33 C33    -2.6411     2.4237     4.8051 C
34 C34    -1.4907     2.5665     4.1378 C
35 C35    -1.5061     2.8858     2.6955 C
36 C36    -2.6737     3.0081     2.0391 C
37 C37    -3.9448     2.8548     2.7887 C
38 C38    -3.9279     2.5840     4.0990 C
39 H39    -2.6317     2.1898     5.8617 H
40 H40    -0.5456     2.4487     4.6522 H
41 H41    -0.5595     3.0090     2.1889 H
42 H42    -4.8936     2.9725     2.2803 H
43 H43    -4.8572     2.4755     4.6432 H
44 C44    -5.2693     7.2453    -0.6233 C
45 C45    -4.9795     6.9045     0.6373 C
46 C46    -4.1804     5.6922     0.9126 C
47 C47    -3.7532     4.9171    -0.0997 C
48 C48    -4.0662     5.3103    -1.4954 C
49 C49    -4.7863     6.4116    -1.7416 C
50 H50    -5.8522     8.1344    -0.8263 H
51 H51    -5.3262     7.5179     1.4589 H
52 H52    -3.9350     5.4612     1.9393 H
53 H53    -3.7082     4.7179    -2.3252 H
54 H54    -5.0114     6.6968    -2.7612 H
55 C55    -4.4632    -0.2184    -2.2157 C
56 C56    -3.7606     0.7344    -2.8381 C
57 C57    -3.2243     1.8791    -2.0725 C
58 C58    -3.4349     1.9700    -0.7476 C
59 C59    -4.1988     0.8977    -0.0624 C
60 C60    -4.6965    -0.1291    -0.7615 C
61 H61    -4.8527    -1.0601    -2.7732 H
62 H62    -3.5787     0.6667    -3.9028 H
63 H63    -2.6388     2.6244    -2.5949 H
64 H64    -4.3631     0.9284     1.0030 H
65 H65    -5.2583    -0.9053    -0.2584 H
66 C66     3.8163    -5.3522     0.2018 C
67 C67     5.0460    -4.8245     0.2145 C
68 C68     5.2329    -3.3859     0.4984 C
69 C69     4.1698    -2.6030     0.7494 C
70 C70     2.8108    -3.1899     0.7105 C
71 C71     2.6438    -4.4948     0.4647 C
72 H72     3.6780    -6.4057    -0.0039 H
73 H73     5.9071    -5.4499     0.0178 H
74 H74     6.2360    -2.9824     0.4875 H
75 H75     1.9501    -2.5669     0.9026 H
76 H76     1.6503    -4.9238     0.4545 H
77 C77     2.1396     0.5223     5.0165 C
78 C78     2.8027     1.4219     4.2816 C
79 C79     3.5265     0.9954     3.0664 C
80 C80     3.4984    -0.2908     2.6755 C
81 C81     2.7951    -1.2896     3.5178 C
82 C82     2.1483    -0.9008     4.6237 C
83 H83     1.6048     0.8332     5.9046 H
84 H84     2.8036     2.4650     4.5702 H
85 H85     4.0477     1.7414     2.4786 H
86 H86     2.8120    -2.3389     3.2626 H
87 H87     1.6418    -1.6304     5.2414 H
88 C88     8.8508     0.2924     1.9303 C
89 C89     8.2428    -0.6608     2.6457 C
90 C90     6.8290    -0.9974     2.3798 C
91 C91     6.1524    -0.3634     1.4070 C
92 C92     6.8253     0.7096     0.6336 C
93 C93     8.1054     1.0151     0.8802 C
94 H94     9.8862     0.5410     2.1243 H
95 H95     8.7847    -1.1876     3.4206 H
96 H96     6.3522    -1.7663     2.9756 H
97 H97     6.2882     1.2685    -0.1195 H
98 H98     8.5943     1.8005     0.3183 H
99 O99    -0.5574     1.4286    -0.4607 O
100 O100     1.7151     0.9744     0.8035 O
101 P101     0.2486     0.3486     0.4475 P
102 O102    -0.4164     0.0677     1.7626 O
103 N103    -2.9468    -2.8202    -0.3543 N
104 H104    -2.3640    -2.4323    -1.1230 H
105 C105    -2.6375    -2.3530     0.8948 C
106 C106    -5.1863    -2.0285     4.3134 C
107 C107    -4.2209    -1.0643     4.0284 C
108 C108    -3.3932    -1.2098     2.9162 C
109 C109    -3.5285    -2.3278     2.0686 C
110 C110    -4.4820    -3.3123     2.3859 C
111 C111    -5.3095    -3.1522     3.4920 C
112 H112    -5.8346    -1.9120     5.1770 H
113 H113    -4.1103    -0.1996     4.6735 H
114 H114    -2.6479    -0.4531     2.6863 H
115 H115    -4.5692    -4.2101     1.7885 H
116 H116    -6.0494    -3.9138     3.7180 H
117 H117    -2.0496    -1.4451     0.7957 H
118 N118     0.3735    -0.9627    -0.5083 N
119 S119     0.0073    -1.0633    -2.0487 S
120 O120     0.4397     0.0272    -2.9296 O
121 O121    -1.3771    -1.5690    -2.2670 O
122 C122     1.0693    -2.5179    -2.5243 C
123 F123     0.8854    -2.7774    -3.8280 F
124 F124     2.3625    -2.2584    -2.3213 F
125 F125     0.7286    -3.6129    -1.8281 F
126 C126    -0.8804    -3.3352     1.5123 C
127 C127    -1.2613    -4.5874     2.0707 C
128 C128    -1.1969    -4.4734     3.4528 C
129 C129    -0.7202    -3.1770     3.7343 C
130 N130    -0.4696    -2.5386     2.5860 N
131 H131    -0.4171    -3.1691     0.5496 H
132 H132    -1.5965    -5.4350     1.4910 H
133 H133    -1.4701    -5.2147     4.1898 H
134 H134    -0.5778    -2.6922     4.6900 H
135 H135    -0.2483    -1.5358     2.4587 H
136 S136    -3.9429    -4.1306    -0.8206 S
137 O137    -3.5760    -5.3092    -0.0271 O
138 O138    -5.3433    -3.7052    -0.8600 O
139 C139    -2.4256    -4.5838    -5.0326 C
140 C140    -1.6324    -4.8046    -3.9027 C
141 N141    -2.0964    -4.6738    -2.6567 N
142 C142    -3.3617    -4.3015    -2.5292 C
143 C143    -4.2519    -4.0469    -3.5670 C
144 C144    -3.7543    -4.2022    -4.8622 C
145 H145    -2.0006    -4.7028    -6.0236 H
146 H146    -0.5871    -5.0818    -3.9979 H
147 H147    -5.2689    -3.7376    -3.3601 H
148 H148    -4.3936    -4.0182    -5.7198 H
@<TRIPOS>BOND
1 1 4 1
2 1 9 1
3 1 11 2
4 2 3 1
5 2 5 1
6 2 12 2
7 3 4 2
8 3 31 1
9 4 99 1
10 6 7 2
11 6 10 1
12 6 21 1
13 7 8 1
14 7 32 1
15 8 9 2
16 8 100 1
17 9 22 1
18 11 12 1
19 11 16 1
20 12 13 1
21 13 14 2
22 13 17 1
23 14 15 1
24 14 18 1
25 15 16 2
26 15 19 1
27 16 20 1
28 21 22 2
29 21 26 1
30 22 23 1
31 23 24 2
32 23 27 1
33 24 25 1
34 24 28 1
35 25 26 2
36 25 29 1
37 26 30 1
38 31 36 1
39 31 47 1
40 31 58 1
41 32 69 1
42 32 80 1
43 32 91 1
44 33 34 2
45 33 38 1
46 33 39 1
47 34 35 1
48 34 40 1
49 35 36 2
50 35 41 1
51 36 37 1
52 37 38 2
53 37 42 1
54 38 43 1
55 44 45 2
56 44 49 1
57 44 50 1
58 45 46 1
59 45 51 1
60 46 47 2
61 46 52 1
62 47 48 1
63 48 49 2
64 48 53 1
65 49 54 1
66 55 56 2
67 55 60 1
68 55 61 1
69 56 57 1
70 56 62 1
71 57 58 2
72 57 63 1
73 58 59 1
74 59 60 2
75 59 64 1
76 60 65 1
77 66 67 2
78 66 71 1
79 66 72 1
80 67 68 1
81 67 73 1
82 68 69 2
83 68 74 1
84 69 70 1
85 70 71 2
86 70 75 1
87 71 76 1
88 77 78 2
89 77 82 1
90 77 83 1
91 78 79 1
92 78 84 1
93 79 80 2
94 79 85 1
95 80 81 1
96 81 82 2
97 81 86 1
98 82 87 1
99 88 89 2
100 88 93 1
101 88 94 1
102 89 90 1
103 89 95 1
104 90 91 2
105 90 96 1
106 91 92 1
107 92 93 2
108 92 97 1
109 93 98 1
110 99 101 1
111 100 101 1
112 101 102 2
113 101 118 Ar
114 103 104 1
115 103 105 Ar
116 103 136 1
117 105 109 1
118 105 117 1
119 106 107 Ar
120 106 111 Ar
121 106 112 1
122 107 108 Ar
123 107 113 1
124 108 109 Ar
125 108 114 1
126 109 110 Ar
127 110 111 Ar
128 110 115 1
129 111 116 1
130 118 119 Ar
131 119 120 2
132 119 121 2
133 119 122 1
134 122 123 1
135 122 124 1
136 122 125 1
137 126 127 Ar
138 126 130 1
139 126 131 1
140 127 128 Ar
141 127 132 1
142 128 129 Ar
143 128 133 1
144 129 130 Ar
145 129 134 1
146 130 135 1
147 136 137 2
148 136 138 2
149 136 142 1
150 139 140 Ar
151 139 144 Ar
152 139 145 1
153 140 141 Ar
154 140 146 1
155 141 142 Ar
156 142 143 Ar
157 143 144 Ar
158 143 147 1
159 144 148 1
