# Title Card Required
# Created by GaussView 5.0.9
#

#
#

@<TRIPOS>MOLECULE
Molecule Name
148 158
SMALL
NO_CHARGES


@<TRIPOS>ATOM
1 C1     1.5874     2.8897    -0.7028 C
2 C2    -0.2097     4.9745    -0.0511 C
3 C3    -0.6929     3.5770    -0.0898 C
4 C4     0.1793     2.5706    -0.3151 C
5 H5    -0.8976     5.7759     0.1876 H
6 C6     4.5315    -0.0251    -1.8176 C
7 C7     3.9258    -0.1022    -0.6218 C
8 C8     2.7607     0.7786    -0.3378 C
9 C9     2.4745     1.7963    -1.1722 C
10 H10     5.4180    -0.6049    -2.0309 H
11 C11     2.0305     4.1677    -0.6149 C
12 C12     1.0781     5.2538    -0.2768 C
13 C13     1.5744     6.6434    -0.2191 C
14 C14     2.8651     6.9090    -0.4451 C
15 C15     3.8309     5.8325    -0.7496 C
16 C16     3.4512     4.5518    -0.8283 C
17 H17     0.8960     7.4574     0.0071 H
18 H18     3.2156     7.9321    -0.3978 H
19 H19     4.8711     6.0900    -0.9030 H
20 H20     4.2077     3.8042    -1.0271 H
21 C21     4.0606     0.9339    -2.8370 C
22 C22     3.0918     1.8249    -2.5299 C
23 C23     2.6235     2.7757    -3.5734 C
24 C24     3.1818     2.7714    -4.7894 C
25 C25     4.2615     1.8166    -5.1069 C
26 C26     4.6783     0.9437    -4.1831 C
27 H27     1.8215     3.4717    -3.3651 H
28 H28     2.8383     3.4643    -5.5466 H
29 H29     4.7115     1.8219    -6.0912 H
30 H30     5.4678     0.2429    -4.4245 H
31 Si31    -2.5085     3.2687     0.2224 Si
32 Si32     4.7277    -1.0584     0.7677 Si
33 C33    -4.0573     0.0832    -2.8513 C
34 C34    -4.5669     0.1076    -1.6153 C
35 C35    -4.0725     1.0903    -0.6284 C
36 C36    -3.1202     1.9739    -0.9714 C
37 C37    -2.5598     1.9388    -2.3455 C
38 C38    -3.0004     1.0392    -3.2324 C
39 H39    -4.4195    -0.6326    -3.5753 H
40 H40    -5.3418    -0.5934    -1.3336 H
41 H41    -4.5005     1.0799     0.3616 H
42 H42    -1.7848     2.6360    -2.6376 H
43 H43    -2.5850     1.0120    -4.2314 H
44 C44    -3.1272     2.0965     4.7204 C
45 C45    -4.1875     2.2995     3.9303 C
46 C46    -3.9956     2.6470     2.5078 C
47 C47    -2.7571     2.7737     2.0012 C
48 C48    -1.5866     2.5783     2.8912 C
49 C49    -1.7634     2.2441     4.1753 C
50 H50    -3.2666     1.8332     5.7608 H
51 H51    -5.1888     2.2039     4.3294 H
52 H52    -4.8685     2.8241     1.8925 H
53 H53    -0.5811     2.7050     2.5139 H
54 H54    -0.9073     2.0942     4.8203 H
55 C55    -4.7877     7.2623    -0.6944 C
56 C56    -4.2562     6.5469    -1.6920 C
57 C57    -3.5401     5.2877    -1.4007 C
58 C58    -3.4311     4.8459    -0.1361 C
59 C59    -4.0065     5.6549     0.9675 C
60 C60    -4.6515     6.7973     0.7002 C
61 H61    -5.3115     8.1855    -0.9060 H
62 H62    -4.3486     6.8887    -2.7148 H
63 H63    -3.1070     4.7349    -2.2232 H
64 H64    -3.8931     5.3444     1.9967 H
65 H65    -5.0658     7.3886     1.5066 H
66 C66     8.1678    -3.8066    -0.8830 C
67 C67     8.4243    -2.9428     0.1051 C
68 C68     7.3516    -2.0682     0.6234 C
69 C69     6.1071    -2.1433     0.1176 C
70 C70     5.8403    -3.0876    -0.9969 C
71 C71     6.8145    -3.8761    -1.4665 C
72 H72     8.9528    -4.4473    -1.2635 H
73 H73     9.4183    -2.8832     0.5293 H
74 H74     7.5986    -1.3763     1.4140 H
75 H75     4.8682    -3.1179    -1.4669 H
76 H76     6.6167    -4.5541    -2.2867 H
77 C77     1.7624    -3.8285     3.1225 C
78 C78     2.1115    -2.6416     3.6289 C
79 C79     2.9969    -1.7416     2.8630 C
80 C80     3.4716    -2.1135     1.6601 C
81 C81     3.0367    -3.4103     1.0860 C
82 C82     2.2305    -4.2222     1.7806 C
83 H83     1.1185    -4.4920     3.6853 H
84 H84     1.7533    -2.3413     4.6051 H
85 H85     3.2646    -0.7916     3.3037 H
86 H86     3.3676    -3.7194     0.1089 H
87 H87     1.9190    -5.1694     1.3595 H
88 C88     6.5063     2.0099     3.8457 C
89 C89     6.0302     2.4481     2.6747 C
90 C90     5.4748     1.4914     1.6952 C
91 C91     5.4389     0.1765     1.9767 C
92 C92     5.9762    -0.3018     3.2752 C
93 C93     6.4797     0.5675     4.1596 C
94 H94     6.9131     2.7102     4.5638 H
95 H95     6.0502     3.5049     2.4413 H
96 H96     5.1101     1.8764     0.7536 H
97 H97     5.9617    -1.3581     3.5130 H
98 H98     6.8690     0.2155     5.1061 H
99 O99    -0.2700     1.2723    -0.3244 O
100 O100     2.0620     0.6373     0.8345 O
101 P101     0.5034     0.1739     0.6213 P
102 O102    -0.1043     0.0614     1.9805 O
103 N103    -2.9922    -2.4680    -0.3319 N
104 H104    -2.1855    -2.1373    -0.9354 H
105 C105    -3.1936    -1.8280     0.8116 C
106 C106    -6.4946    -1.4691     3.4365 C
107 C107    -5.2516    -0.9293     3.7639 C
108 C108    -4.1848    -1.0653     2.8827 C
109 C109    -4.3409    -1.7907     1.6787 C
110 C110    -5.6121    -2.3169     1.3484 C
111 C111    -6.6738    -2.1456     2.2227 C
112 H112    -7.3323    -1.3505     4.1174 H
113 H113    -5.1169    -0.3962     4.6989 H
114 H114    -3.2245    -0.6172     3.1075 H
115 H115    -5.7703    -2.8255     0.4070 H
116 H116    -7.6510    -2.5377     1.9598 H
117 H117    -2.4209    -1.0854     1.0110 H
118 N118     0.4200    -1.2012    -0.2493 N
119 S119     0.1922    -1.3452    -1.8036 S
120 O120     0.8577    -0.3916    -2.6995 O
121 O121    -1.2448    -1.6304    -2.1301 O
122 C122     1.0124    -2.9871    -2.1250 C
123 F123     0.6102    -3.4362    -3.3236 F
124 F124     2.3390    -2.8359    -2.1486 F
125 F125     0.6852    -3.8881    -1.1974 F
126 C126    -1.3263    -3.1979     2.3410 C
127 C127    -2.1097    -4.1456     2.9954 C
128 C128    -2.3364    -3.6667     4.3034 C
129 C129    -1.6728    -2.4473     4.4145 C
130 N130    -1.0578    -2.1838     3.2287 N
131 H131    -0.8325    -3.2251     1.3808 H
132 H132    -2.4713    -5.0685     2.5653 H
133 H133    -2.9125    -4.1453     5.0827 H
134 H134    -1.5973    -1.7621     5.2466 H
135 H135    -0.5486    -1.3327     2.9563 H
136 S136    -3.4631    -4.0735    -0.8607 S
137 O137    -2.1935    -4.6896    -1.2277 O
138 O138    -4.3547    -4.6655     0.1243 O
139 C139    -5.7231    -3.0842    -4.6229 C
140 C140    -6.3166    -3.1113    -3.3579 C
141 N141    -5.6359    -3.4016    -2.2436 N
142 C142    -4.3452    -3.6695    -2.3903 C
143 C143    -3.6303    -3.6547    -3.5853 C
144 C144    -4.3599    -3.3521    -4.7363 C
145 H145    -6.3210    -2.8463    -5.4962 H
146 H146    -7.3736    -2.8921    -3.2318 H
147 H147    -2.5649    -3.8492    -3.6005 H
148 H148    -3.8661    -3.3214    -5.7020 H
@<TRIPOS>BOND
1 1 4 1
2 1 9 1
3 1 11 2
4 2 3 1
5 2 5 1
6 2 12 2
7 3 4 2
8 3 31 1
9 4 99 1
10 6 7 2
11 6 10 1
12 6 21 1
13 7 8 1
14 7 32 1
15 8 9 2
16 8 100 1
17 9 22 1
18 11 12 1
19 11 16 1
20 12 13 1
21 13 14 2
22 13 17 1
23 14 15 1
24 14 18 1
25 15 16 2
26 15 19 1
27 16 20 1
28 21 22 2
29 21 26 1
30 22 23 1
31 23 24 2
32 23 27 1
33 24 25 1
34 24 28 1
35 25 26 2
36 25 29 1
37 26 30 1
38 31 36 1
39 31 47 1
40 31 58 1
41 32 69 1
42 32 80 1
43 32 91 1
44 33 34 2
45 33 38 1
46 33 39 1
47 34 35 1
48 34 40 1
49 35 36 2
50 35 41 1
51 36 37 1
52 37 38 2
53 37 42 1
54 38 43 1
55 44 45 2
56 44 49 1
57 44 50 1
58 45 46 1
59 45 51 1
60 46 47 2
61 46 52 1
62 47 48 1
63 48 49 2
64 48 53 1
65 49 54 1
66 55 56 2
67 55 60 1
68 55 61 1
69 56 57 1
70 56 62 1
71 57 58 2
72 57 63 1
73 58 59 1
74 59 60 2
75 59 64 1
76 60 65 1
77 66 67 2
78 66 71 1
79 66 72 1
80 67 68 1
81 67 73 1
82 68 69 2
83 68 74 1
84 69 70 1
85 70 71 2
86 70 75 1
87 71 76 1
88 77 78 2
89 77 82 1
90 77 83 1
91 78 79 1
92 78 84 1
93 79 80 2
94 79 85 1
95 80 81 1
96 81 82 2
97 81 86 1
98 82 87 1
99 88 89 2
100 88 93 1
101 88 94 1
102 89 90 1
103 89 95 1
104 90 91 2
105 90 96 1
106 91 92 1
107 92 93 2
108 92 97 1
109 93 98 1
110 99 101 1
111 100 101 1
112 101 102 2
113 101 118 Ar
114 103 105 Ar
115 103 136 1
116 105 109 Ar
117 105 117 1
118 106 107 Ar
119 106 111 Ar
120 106 112 1
121 107 108 Ar
122 107 113 1
123 108 109 Ar
124 108 114 1
125 109 110 Ar
126 110 111 2
127 110 115 1
128 111 116 1
129 118 119 Ar
130 119 120 2
131 119 121 2
132 119 122 1
133 122 123 1
134 122 124 1
135 122 125 1
136 126 127 Ar
137 126 130 Ar
138 126 131 1
139 127 128 Ar
140 127 132 1
141 128 129 Ar
142 128 133 1
143 129 130 Ar
144 129 134 1
145 130 135 1
146 136 137 2
147 136 138 2
148 136 142 1
149 139 140 Ar
150 139 144 Ar
151 139 145 1
152 140 141 Ar
153 140 146 1
154 141 142 Ar
155 142 143 Ar
156 143 144 Ar
157 143 147 1
158 144 148 1
