# Title Card Required
# Created by GaussView 5.0.9
#

#
#

@<TRIPOS>MOLECULE
Molecule Name
148 159
SMALL
NO_CHARGES


@<TRIPOS>ATOM
1 C1    -3.1434     1.7166    -0.8354 C
2 C2    -5.4414     0.0925    -0.4852 C
3 C3    -4.1006    -0.5266    -0.4369 C
4 C4    -2.9996     0.2382    -0.6099 C
5 H5    -6.3250    -0.5231    -0.3962 H
6 C6     0.2258     4.3927    -1.1227 C
7 C7     0.1007     3.5711    -0.0711 C
8 C8    -0.9732     2.5433    -0.0704 C
9 C9    -1.9263     2.5549    -1.0231 C
10 H10     1.0069     5.1433    -1.1419 H
11 C11    -4.3775     2.2788    -0.7711 C
12 C12    -5.5753     1.4139    -0.6306 C
13 C13    -6.9131     2.0395    -0.6521 C
14 C14    -7.0361     3.3676    -0.7369 C
15 C15    -5.8504     4.2466    -0.7979 C
16 C16    -4.6084     3.7487    -0.8066 C
17 H17    -7.8048     1.4265    -0.5932 H
18 H18    -8.0226     3.8131    -0.7464 H
19 H19    -5.9947     5.3192    -0.8252 H
20 H20    -3.7810     4.4451    -0.8191 H
21 C21    -0.7097     4.2981    -2.2624 C
22 C22    -1.7450     3.4272    -2.2219 C
23 C23    -2.6393     3.3114    -3.4050 C
24 C24    -2.4443     4.0867    -4.4778 C
25 C25    -1.3336     5.0578    -4.4997 C
26 C26    -0.5089     5.1574    -3.4516 C
27 H27    -3.4470     2.5915    -3.4172 H
28 H28    -3.0965     3.9980    -5.3370 H
29 H29    -1.1842     5.6840    -5.3697 H
30 H30     0.3090     5.8667    -3.4782 H
31 Si31    -3.9649    -2.3546    -0.0569 Si
32 Si32     1.2147     3.7927     1.4102 Si
33 C33    -8.1343    -4.4920    -0.1480 C
34 C34    -7.8618    -3.5882     0.8001 C
35 C35    -6.5476    -2.9135     0.8234 C
36 C36    -5.6255    -3.1917    -0.1142 C
37 C37    -5.9286    -4.2061    -1.1537 C
38 C38    -7.1193    -4.8184    -1.1697 C
39 H39    -9.0961    -4.9881    -0.1662 H
40 H40    -8.6022    -3.3499     1.5526 H
41 H41    -6.3430    -2.1923     1.6053 H
42 H42    -5.1945    -4.4648    -1.9035 H
43 H43    -7.3396    -5.5578    -1.9289 H
44 C44    -1.1104    -4.2552    -3.2535 C
45 C45    -2.1315    -3.4798    -3.6363 C
46 C46    -3.0278    -2.8825    -2.6245 C
47 C47    -2.8227    -3.1134    -1.3167 C
48 C48    -1.6769    -3.9577    -0.8991 C
49 C49    -0.8715    -4.5046    -1.8177 C
50 H50    -0.4530    -4.6935    -3.9931 H
51 H51    -2.3052    -3.2900    -4.6875 H
52 H52    -3.8517    -2.2618    -2.9547 H
53 H53    -1.4807    -4.1433     0.1446 H
54 H54    -0.0358    -5.1199    -1.5097 H
55 C55    -2.4369    -2.9246     4.3379 C
56 C56    -2.6999    -3.9921     3.5754 C
57 C57    -3.1853    -3.8128     2.1912 C
58 C58    -3.3450    -2.5790     1.6841 C
59 C59    -3.0984    -1.4001     2.5519 C
60 C60    -2.6551    -1.5658     3.8041 C
61 H61    -2.0755    -3.0543     5.3497 H
62 H62    -2.5524    -4.9896     3.9685 H
63 H63    -3.4014    -4.6898     1.5937 H
64 H64    -3.2656    -0.3978     2.1818 H
65 H65    -2.4634    -0.7046     4.4307 H
66 C66     5.3322     1.7024     0.5820 C
67 C67     5.0552     2.1677     1.8052 C
68 C68     3.7649     2.8385     2.0673 C
69 C69     2.8519     2.9609     1.0880 C
70 C70     3.1731     2.4563    -0.2683 C
71 C71     4.3497     1.8658    -0.5073 C
72 H72     6.2757     1.2091     0.3883 H
73 H73     5.7738     2.0518     2.6060 H
74 H74     3.5664     3.2208     3.0608 H
75 H75     2.4683     2.5722    -1.0790 H
76 H76     4.5821     1.5096    -1.5012 H
77 C77    -1.0295     1.9246     5.0872 C
78 C78    -1.5473     2.9776     4.4465 C
79 C79    -0.8262     3.5784     3.3055 C
80 C80     0.3588     3.0811     2.9096 C
81 C81     0.9228     1.9092     3.6244 C
82 C82     0.2640     1.3630     4.6539 C
83 H83    -1.5591     1.4791     5.9193 H
84 H84    -2.4999     3.3873     4.7565 H
85 H85    -1.2881     4.4024     2.7823 H
86 H86     1.8564     1.4701     3.3114 H
87 H87     0.6743     0.5040     5.1682 H
88 C88     1.7736     8.4094     2.0364 C
89 C89     2.8387     7.6017     2.0867 C
90 C90     2.6760     6.1460     1.8898 C
91 C91     1.4564     5.6226     1.6736 C
92 C92     0.2829     6.5285     1.6003 C
93 C93     0.4343     7.8469     1.7749 C
94 H94     1.8920     9.4757     2.1792 H
95 H95     3.8229     8.0124     2.2716 H
96 H96     3.5573     5.5238     1.9265 H
97 H97    -0.6996     6.1352     1.3769 H
98 H98    -0.4226     8.5051     1.7125 H
99 O99    -1.7722    -0.3729    -0.7135 O
100 O100    -0.9804     1.5643     0.8903 O
101 P101    -0.5794     0.0951     0.2948 P
102 O102    -0.4217    -0.8396     1.4559 O
103 N103     3.6633    -2.5539    -0.5131 N
104 H104     3.4626    -1.7940    -1.1912 H
105 C105     2.7361    -2.6735     0.4875 C
106 C106     1.7531    -6.1099     2.8262 C
107 C107     3.0957    -5.8803     2.5154 C
108 C108     3.4714    -4.7570     1.7845 C
109 C109     2.4937    -3.8514     1.3346 C
110 C110     1.1478    -4.0669     1.6941 C
111 C111     0.7804    -5.1949     2.4227 C
112 H112     1.4692    -6.9935     3.3902 H
113 H113     3.8578    -6.5793     2.8454 H
114 H114     4.5201    -4.5860     1.5803 H
115 H115     0.3945    -3.3447     1.3937 H
116 H116    -0.2633    -5.3594     2.6683 H
117 H117     1.8111    -2.2061     0.1664 H
118 N118     0.7499     0.3374    -0.6200 N
119 S119     1.1934    -0.4661    -1.9006 S
120 O120     0.5745    -1.7864    -2.0824 O
121 O121     2.6764    -0.4167    -2.0259 O
122 C122     0.6227     0.5518    -3.3589 C
123 F123    -0.7143     0.6323    -3.3678 F
124 F124     1.1251     1.7906    -3.3009 F
125 F125     1.0274    -0.0255    -4.4943 F
126 C126     3.0306    -1.0403     1.8039 C
127 C127     4.1905    -1.3796     2.5567 C
128 C128     3.7708    -1.7951     3.8134 C
129 C129     2.3694    -1.6463     3.8459 C
130 N130     1.9503    -1.1436     2.6799 N
131 H131     2.9610    -0.3304     0.9900 H
132 H132     5.1974    -1.3758     2.1661 H
133 H133     4.3809    -2.1787     4.6182 H
134 H134     1.6700    -1.8899     4.6340 H
135 H135     0.9709    -0.9760     2.3691 H
136 S136     5.2027    -3.2787    -0.6793 S
137 O137     5.9763    -3.0550     0.5462 O
138 O138     5.0504    -4.6412    -1.1919 O
139 C139     6.8649    -0.6672    -3.9501 C
140 C140     6.6570    -0.2207    -2.6421 C
141 N141     6.1505    -0.9991    -1.6809 N
142 C142     5.8431    -2.2420    -2.0240 C
143 C143     6.0004    -2.8077    -3.2856 C
144 C144     6.5314    -1.9798    -4.2765 C
145 H145     7.2783     0.0068    -4.6929 H
146 H146     6.9056     0.7976    -2.3551 H
147 H147     5.7181    -3.8370    -3.4691 H
148 H148     6.6783    -2.3562    -5.2838 H
@<TRIPOS>BOND
1 1 4 1
2 1 9 1
3 1 11 2
4 2 3 1
5 2 5 1
6 2 12 2
7 3 4 2
8 3 31 1
9 4 99 1
10 6 7 2
11 6 10 1
12 6 21 1
13 7 8 1
14 7 32 1
15 8 9 2
16 8 100 1
17 9 22 1
18 11 12 1
19 11 16 1
20 12 13 1
21 13 14 2
22 13 17 1
23 14 15 1
24 14 18 1
25 15 16 2
26 15 19 1
27 16 20 1
28 21 22 2
29 21 26 1
30 22 23 1
31 23 24 2
32 23 27 1
33 24 25 1
34 24 28 1
35 25 26 2
36 25 29 1
37 26 30 1
38 31 36 1
39 31 47 1
40 31 58 1
41 32 69 1
42 32 80 1
43 32 91 1
44 33 34 2
45 33 38 1
46 33 39 1
47 34 35 1
48 34 40 1
49 35 36 2
50 35 41 1
51 36 37 1
52 37 38 2
53 37 42 1
54 38 43 1
55 44 45 2
56 44 49 1
57 44 50 1
58 45 46 1
59 45 51 1
60 46 47 2
61 46 52 1
62 47 48 1
63 48 49 2
64 48 53 1
65 49 54 1
66 55 56 2
67 55 60 1
68 55 61 1
69 56 57 1
70 56 62 1
71 57 58 2
72 57 63 1
73 58 59 1
74 59 60 2
75 59 64 1
76 60 65 1
77 66 67 2
78 66 71 1
79 66 72 1
80 67 68 1
81 67 73 1
82 68 69 2
83 68 74 1
84 69 70 1
85 70 71 2
86 70 75 1
87 71 76 1
88 77 78 2
89 77 82 1
90 77 83 1
91 78 79 1
92 78 84 1
93 79 80 2
94 79 85 1
95 80 81 1
96 81 82 2
97 81 86 1
98 82 87 1
99 88 89 2
100 88 93 1
101 88 94 1
102 89 90 1
103 89 95 1
104 90 91 2
105 90 96 1
106 91 92 1
107 92 93 2
108 92 97 1
109 93 98 1
110 99 101 1
111 100 101 1
112 101 102 2
113 101 118 Ar
114 103 104 1
115 103 105 Ar
116 103 136 1
117 105 109 1
118 105 117 1
119 106 107 Ar
120 106 111 Ar
121 106 112 1
122 107 108 Ar
123 107 113 1
124 108 109 Ar
125 108 114 1
126 109 110 Ar
127 110 111 Ar
128 110 115 1
129 111 116 1
130 118 119 Ar
131 119 120 2
132 119 121 2
133 119 122 1
134 122 123 1
135 122 124 1
136 122 125 1
137 126 127 Ar
138 126 130 1
139 126 131 1
140 127 128 Ar
141 127 132 1
142 128 129 Ar
143 128 133 1
144 129 130 Ar
145 129 134 1
146 130 135 1
147 136 137 2
148 136 138 2
149 136 142 1
150 139 140 Ar
151 139 144 Ar
152 139 145 1
153 140 141 Ar
154 140 146 1
155 141 142 Ar
156 142 143 Ar
157 143 144 Ar
158 143 147 1
159 144 148 1
