# Title Card Required
# Created by GaussView 5.0.9
#

#
#

@<TRIPOS>MOLECULE
Molecule Name
148 159
SMALL
NO_CHARGES


@<TRIPOS>ATOM
1 C1     1.5331     2.9093    -0.7674 C
2 C2    -0.2825     5.0045    -0.2065 C
3 C3    -0.7570     3.6035    -0.1979 C
4 C4     0.1221     2.5951    -0.3817 C
5 H5    -0.9775     5.8098    -0.0035 H
6 C6     4.5088    -0.0158    -1.7687 C
7 C7     3.8875    -0.0680    -0.5798 C
8 C8     2.7162     0.8159    -0.3307 C
9 C9     2.4326     1.8087    -1.1955 C
10 H10     5.3989    -0.5985    -1.9577 H
11 C11     1.9678     4.1925    -0.7181 C
12 C12     1.0053     5.2840    -0.4301 C
13 C13     1.4918     6.6783    -0.4199 C
14 C14     2.7829     6.9443    -0.6425 C
15 C15     3.7591     5.8637    -0.8950 C
16 C16     3.3886     4.5784    -0.9289 C
17 H17     0.8056     7.4956    -0.2319 H
18 H18     3.1261     7.9708    -0.6307 H
19 H19     4.7993     6.1224    -1.0462 H
20 H20     4.1525     3.8292    -1.0894 H
21 C21     4.0460     0.9146    -2.8175 C
22 C22     3.0666     1.8056    -2.5462 C
23 C23     2.6032     2.7234    -3.6211 C
24 C24     3.1763     2.6909    -4.8297 C
25 C25     4.2675     1.7372    -5.1080 C
26 C26     4.6799     0.8931    -4.1559 C
27 H27     1.7926     3.4176    -3.4419 H
28 H28     2.8361     3.3599    -5.6096 H
29 H29     4.7294     1.7195    -6.0867 H
30 H30     5.4776     0.1924    -4.3688 H
31 Si31    -2.5668     3.2982     0.1473 Si
32 Si32     4.6654    -1.0035     0.8376 Si
33 C33    -4.1583    -0.1146    -2.6506 C
34 C34    -4.6253    -0.0143    -1.4015 C
35 C35    -4.1135     1.0395    -0.5000 C
36 C36    -3.1914     1.9146    -0.9359 C
37 C37    -2.6774     1.7949    -2.3232 C
38 C38    -3.1330     0.8311    -3.1323 C
39 H39    -4.5284    -0.8880    -3.3095 H
40 H40    -5.3744    -0.7099    -1.0453 H
41 H41    -4.5060     1.0893     0.5037 H
42 H42    -1.9224     2.4804    -2.6866 H
43 H43    -2.7504     0.7419    -4.1406 H
44 C44    -3.1158     2.4619     4.7270 C
45 C45    -4.1877     2.6254     3.9435 C
46 C46    -4.0181     2.8586     2.4953 C
47 C47    -2.7878     2.9285     1.9592 C
48 C48    -1.6031     2.7693     2.8381 C
49 C49    -1.7606     2.5363     4.1467 C
50 H50    -3.2393     2.2827     5.7871 H
51 H51    -5.1825     2.5814     4.3674 H
52 H52    -4.8996     3.0014     1.8829 H
53 H53    -0.6030     2.8402     2.4331 H
54 H54    -0.8949     2.4139     4.7846 H
55 C55    -4.8636     7.2179    -1.0158 C
56 C56    -4.3526     6.4301    -1.9685 C
57 C57    -3.6324     5.1937    -1.5999 C
58 C58    -3.5002     4.8443    -0.3089 C
59 C59    -4.0521     5.7341     0.7435 C
60 C60    -4.7005     6.8557     0.4061 C
61 H61    -5.3898     8.1248    -1.2840 H
62 H62    -4.4640     6.6969    -3.0115 H
63 H63    -3.2146     4.5828    -2.3882 H
64 H64    -3.9171     5.5009     1.7903 H
65 H65    -5.0970     7.5061     1.1751 H
66 C66     8.1498    -3.7620    -0.7012 C
67 C67     8.3820    -2.8835     0.2799 C
68 C68     7.2952    -2.0060     0.7629 C
69 C69     6.0620    -2.0930     0.2319 C
70 C70     5.8226    -3.0543    -0.8743 C
71 C71     6.8095    -3.8453    -1.3121 C
72 H72     8.9451    -4.4047    -1.0560 H
73 H73     9.3665    -2.8140     0.7241 H
74 H74     7.5227    -1.3023     1.5490 H
75 H75     4.8609    -3.0958    -1.3641 H
76 H76     6.6317    -4.5357    -2.1265 H
77 C77     1.6220    -3.7267     3.1498 C
78 C78     1.9619    -2.5331     3.6470 C
79 C79     2.8782    -1.6519     2.8959 C
80 C80     3.3913    -2.0478     1.7167 C
81 C81     2.9754    -3.3566     1.1557 C
82 C82     2.1394    -4.1505     1.8357 C
83 H83     0.9524    -4.3750     3.7000 H
84 H84     1.5700    -2.2118     4.6032 H
85 H85     3.1320    -0.6930     3.3254 H
86 H86     3.3432    -3.6885     0.1995 H
87 H87     1.8406    -5.1056     1.4235 H
88 C88     6.3771     2.1085     3.9088 C
89 C89     5.9298     2.5294     2.7201 C
90 C90     5.3945     1.5588     1.7430 C
91 C91     5.3483     0.2487     2.0444 C
92 C92     5.8532    -0.2105     3.3625 C
93 C93     6.3385     0.6713     4.2447 C
94 H94     6.7695     2.8189     4.6249 H
95 H95     5.9589     3.5822     2.4705 H
96 H96     5.0536     1.9295     0.7867 H
97 H97     5.8301    -1.2630     3.6164 H
98 H98     6.7046     0.3332     5.2055 H
99 O99    -0.3230     1.2961    -0.3432 O
100 O100     2.0068     0.7029     0.8382 O
101 P101     0.4541     0.2247     0.6223 P
102 O102    -0.1525     0.1392     1.9891 O
103 N103    -3.0590    -2.5550    -0.3104 N
104 H104    -2.3177    -2.1862    -0.9482 H
105 C105    -3.0506    -1.9737     0.9287 C
106 C106    -6.2999    -1.3646     3.6255 C
107 C107    -5.0910    -0.6923     3.7895 C
108 C108    -4.0449    -0.9069     2.8939 C
109 C109    -4.1862    -1.8324     1.8378 C
110 C110    -5.4202    -2.4933     1.6723 C
111 C111    -6.4638    -2.2506     2.5555 C
112 H112    -7.1177    -1.1898     4.3183 H
113 H113    -4.9653     0.0025     4.6128 H
114 H114    -3.1262    -0.3381     2.9856 H
115 H115    -5.5610    -3.1798     0.8497 H
116 H116    -7.4136    -2.7555     2.4086 H
117 H117    -2.3778    -1.1197     0.9299 H
118 N118     0.3696    -1.1713    -0.2106 N
119 S119     0.1739    -1.3382    -1.7748 S
120 O120     0.8478    -0.3766    -2.6560 O
121 O121    -1.2411    -1.6593    -2.1298 O
122 C122     1.0465    -2.9605    -2.0604 C
123 F123     0.6652    -3.4438    -3.2542 F
124 F124     2.3681    -2.7708    -2.0805 F
125 F125     0.7419    -3.8570    -1.1210 F
126 C126    -1.4695    -3.0459     2.0500 C
127 C127    -2.1395    -4.1161     2.7015 C
128 C128    -2.2971    -3.7635     4.0363 C
129 C129    -1.6736    -2.5113     4.2052 C
130 N130    -1.1470    -2.1211     3.0358 N
131 H131    -0.8597    -3.0815     1.1570 H
132 H132    -2.4950    -5.0118     2.2136 H
133 H133    -2.8066    -4.3209     4.8088 H
134 H134    -1.5907    -1.8967     5.0909 H
135 H135    -0.6595    -1.2310     2.8047 H
136 S136    -3.3316    -4.2019    -0.7477 S
137 O137    -2.0117    -4.8032    -0.9468 O
138 O138    -4.2861    -4.8086     0.1758 O
139 C139    -5.2432    -3.5046    -4.7641 C
140 C140    -5.9669    -3.5745    -3.5707 C
141 N141    -5.3904    -3.7830    -2.3821 N
142 C142    -4.0733    -3.9355    -2.3812 C
143 C143    -3.2370    -3.8808    -3.4939 C
144 C144    -3.8581    -3.6537    -4.7228 C
145 H145    -5.7595    -3.3287    -5.7019 H
146 H146    -7.0473    -3.4544    -3.5656 H
147 H147    -2.1636    -3.9839    -3.3954 H
148 H148    -3.2649    -3.5909    -5.6293 H
@<TRIPOS>BOND
1 1 4 1
2 1 9 1
3 1 11 2
4 2 3 1
5 2 5 1
6 2 12 2
7 3 4 2
8 3 31 1
9 4 99 1
10 6 7 2
11 6 10 1
12 6 21 1
13 7 8 1
14 7 32 1
15 8 9 2
16 8 100 1
17 9 22 1
18 11 12 1
19 11 16 1
20 12 13 1
21 13 14 2
22 13 17 1
23 14 15 1
24 14 18 1
25 15 16 2
26 15 19 1
27 16 20 1
28 21 22 2
29 21 26 1
30 22 23 1
31 23 24 2
32 23 27 1
33 24 25 1
34 24 28 1
35 25 26 2
36 25 29 1
37 26 30 1
38 31 36 1
39 31 47 1
40 31 58 1
41 32 69 1
42 32 80 1
43 32 91 1
44 33 34 2
45 33 38 1
46 33 39 1
47 34 35 1
48 34 40 1
49 35 36 2
50 35 41 1
51 36 37 1
52 37 38 2
53 37 42 1
54 38 43 1
55 44 45 2
56 44 49 1
57 44 50 1
58 45 46 1
59 45 51 1
60 46 47 2
61 46 52 1
62 47 48 1
63 48 49 2
64 48 53 1
65 49 54 1
66 55 56 2
67 55 60 1
68 55 61 1
69 56 57 1
70 56 62 1
71 57 58 2
72 57 63 1
73 58 59 1
74 59 60 2
75 59 64 1
76 60 65 1
77 66 67 2
78 66 71 1
79 66 72 1
80 67 68 1
81 67 73 1
82 68 69 2
83 68 74 1
84 69 70 1
85 70 71 2
86 70 75 1
87 71 76 1
88 77 78 2
89 77 82 1
90 77 83 1
91 78 79 1
92 78 84 1
93 79 80 2
94 79 85 1
95 80 81 1
96 81 82 2
97 81 86 1
98 82 87 1
99 88 89 2
100 88 93 1
101 88 94 1
102 89 90 1
103 89 95 1
104 90 91 2
105 90 96 1
106 91 92 1
107 92 93 2
108 92 97 1
109 93 98 1
110 99 101 1
111 100 101 1
112 101 102 2
113 101 118 Ar
114 103 104 1
115 103 105 Ar
116 103 136 1
117 105 109 1
118 105 117 1
119 106 107 Ar
120 106 111 Ar
121 106 112 1
122 107 108 Ar
123 107 113 1
124 108 109 Ar
125 108 114 1
126 109 110 Ar
127 110 111 Ar
128 110 115 1
129 111 116 1
130 118 119 Ar
131 119 120 2
132 119 121 2
133 119 122 1
134 122 123 1
135 122 124 1
136 122 125 1
137 126 127 Ar
138 126 130 1
139 126 131 1
140 127 128 Ar
141 127 132 1
142 128 129 Ar
143 128 133 1
144 129 130 Ar
145 129 134 1
146 130 135 1
147 136 137 2
148 136 138 2
149 136 142 1
150 139 140 Ar
151 139 144 Ar
152 139 145 1
153 140 141 Ar
154 140 146 1
155 141 142 Ar
156 142 143 Ar
157 143 144 Ar
158 143 147 1
159 144 148 1
