# Title Card Required
# Created by GaussView 5.0.9
#

#
#

@<TRIPOS>MOLECULE
Molecule Name
148 159
SMALL
NO_CHARGES


@<TRIPOS>ATOM
1 C1    -3.0136     1.9886    -0.6056 C
2 C2    -5.4133     0.5843    -0.0421 C
3 C3    -4.1465    -0.1640    -0.1759 C
4 C4    -2.9966     0.4975    -0.4271 C
5 H5    -6.3328     0.0532     0.1690 H
6 C6     0.5921     4.3021    -1.1196 C
7 C7     0.4649     3.4664    -0.0793 C
8 C8    -0.7166     2.5682    -0.0044 C
9 C9    -1.7362     2.7074    -0.8747 C
10 H10     1.4522     4.9566    -1.1947 H
11 C11    -4.1748     2.6650    -0.4126 C
12 C12    -5.4305     1.9162    -0.1520 C
13 C13    -6.6918     2.6693    -0.0003 C
14 C14    -6.6906     4.0049    -0.0487 C
15 C15    -5.4388     4.7660    -0.2382 C
16 C16    -4.2616     4.1506    -0.4004 C
17 H17    -7.6270     2.1445     0.1553 H
18 H18    -7.6219     4.5443     0.0675 H
19 H19    -5.4780     5.8478    -0.2329 H
20 H20    -3.3769     4.7641    -0.5007 H
21 C21    -0.4420     4.3470    -2.1750 C
22 C22    -1.5594     3.5906    -2.0659 C
23 C23    -2.5557     3.6079    -3.1702 C
24 C24    -2.3661     4.3906    -4.2387 C
25 C25    -1.1613     5.2372    -4.3343 C
26 C26    -0.2471     5.2159    -3.3583 C
27 H27    -3.4360     2.9802    -3.1284 H
28 H28    -3.0929     4.3991    -5.0407 H
29 H29    -1.0165     5.8700    -5.2004 H
30 H30     0.6385     5.8338    -3.4396 H
31 Si31    -4.1697    -2.0065     0.1417 Si
32 Si32     1.7282     3.4883     1.2954 Si
33 C33    -2.5398    -2.8614     4.4604 C
34 C34    -2.6116    -1.6023     4.0148 C
35 C35    -3.1398    -1.3240     2.6633 C
36 C36    -3.5220    -2.3341     1.8617 C
37 C37    -3.4655    -3.7251     2.3750 C
38 C38    -2.9979    -3.9736     3.6043 C
39 H39    -2.1506    -3.0671     5.4490 H
40 H40    -2.2793    -0.7844     4.6410 H
41 H41    -3.1925    -0.2950     2.3359 H
42 H42    -3.8111    -4.5463     1.7596 H
43 H43    -2.9555    -4.9898     3.9741 H
44 C44    -8.5946    -3.5425    -0.1681 C
45 C45    -7.9724    -3.0674    -1.2525 C
46 C46    -6.5795    -2.5839    -1.1553 C
47 C47    -5.9236    -2.6298     0.0172 C
48 C48    -6.6284    -3.1413     1.2201 C
49 C49    -7.8914    -3.5760     1.1291 C
50 H50    -9.6153    -3.8959    -0.2374 H
51 H51    -8.4878    -3.0347    -2.2036 H
52 H52    -6.1099    -2.1868    -2.0429 H
53 H53    -6.1408    -3.1508     2.1844 H
54 H54    -8.4040    -3.9439     2.0086 H
55 C55    -1.6046    -4.1671    -3.1458 C
56 C56    -2.4814    -3.2176    -3.4904 C
57 C57    -3.2760    -2.5305    -2.4512 C
58 C58    -3.1314    -2.8585    -1.1553 C
59 C59    -2.1273    -3.8855    -0.7793 C
60 C60    -1.4132    -4.5109    -1.7232 C
61 H61    -1.0212    -4.6710    -3.9054 H
62 H62    -2.6124    -2.9513    -4.5312 H
63 H63    -3.9635    -1.7529    -2.7556 H
64 H64    -1.9519    -4.1367     0.2539 H
65 H65    -0.6807    -5.2576    -1.4443 H
66 C66     3.1238     7.9197     1.9306 C
67 C67     4.0259     6.9319     1.9500 C
68 C68     3.5970     5.5316     1.7510 C
69 C69     2.2986     5.2417     1.5583 C
70 C70     1.3056     6.3441     1.5274 C
71 C71     1.6977     7.6115     1.7051 C
72 H72     3.4370     8.9456     2.0755 H
73 H73     5.0724     7.1557     2.1116 H
74 H74     4.3488     4.7559     1.7697 H
75 H75     0.2601     6.1333     1.3426 H
76 H76     0.9719     8.4139     1.6765 H
77 C77     5.4165     0.8582     0.0892 C
78 C78     5.2198     1.1805     1.3724 C
79 C79     4.0628     2.0156     1.7563 C
80 C80     3.1785     2.4180     0.8270 C
81 C81     3.4049     2.0592    -0.5930 C
82 C82     4.4728     1.3325    -0.9420 C
83 H83     6.2655     0.2509    -0.1959 H
84 H84     5.9101     0.8353     2.1312 H
85 H85     3.9418     2.2957     2.7952 H
86 H86     2.7224     2.3963    -1.3605 H
87 H87     4.6441     1.0893    -1.9816 H
88 C88    -0.4944     1.9002     5.1095 C
89 C89    -0.7493     3.1290     4.6474 C
90 C90    -0.0289     3.6390     3.4624 C
91 C91     0.9034     2.8841     2.8559 C
92 C92     1.1753     1.5194     3.3720 C
93 C93     0.5094     1.0542     4.4363 C
94 H94    -1.0279     1.5211     5.9715 H
95 H95    -1.4912     3.7489     5.1337 H
96 H96    -0.2846     4.6189     3.0869 H
97 H97     1.8799     0.8746     2.8689 H
98 H98     0.6925     0.0520     4.7986 H
99 O99    -1.8432    -0.2201    -0.6351 O
100 O100    -0.7652     1.5844     0.9492 O
101 P101    -0.5588     0.0917     0.3256 P
102 O102    -0.4474    -0.8540     1.4826 O
103 N103     3.7856    -2.0784    -0.2702 N
104 H104     3.3902    -1.5002    -1.0355 H
105 C105     2.9697    -2.1969     0.8335 C
106 C106     4.1433    -2.7942     4.9090 C
107 C107     4.9884    -3.2459     3.8915 C
108 C108     4.6362    -3.0900     2.5549 C
109 C109     3.4249    -2.4631     2.2118 C
110 C110     2.5781    -2.0147     3.2445 C
111 C111     2.9375    -2.1775     4.5816 C
112 H112     4.4295    -2.9173     5.9494 H
113 H113     5.9350    -3.7163     4.1392 H
114 H114     5.3269    -3.4279     1.7948 H
115 H115     1.6469    -1.5197     2.9903 H
116 H116     2.2782    -1.8155     5.3642 H
117 H117     2.2205    -1.4087     0.7825 H
118 N118     0.7351     0.1767    -0.6640 N
119 S119     0.9866    -0.6115    -2.0031 S
120 O120     0.2676    -1.8891    -2.1478 O
121 O121     2.4452    -0.6478    -2.2819 O
122 C122     0.3443     0.4696    -3.3869 C
123 F123    -0.9787     0.6391    -3.2766 F
124 F124     0.9330     1.6700    -3.3527 F
125 F125     0.6075    -0.1085    -4.5634 F
126 C126     1.4976    -3.6264     0.4311 C
127 C127     2.0303    -4.9109     0.7737 C
128 C128     1.4616    -5.3066     1.9704 C
129 C129     0.5277    -4.3080     2.3270 C
130 N130     0.5054    -3.3633     1.3868 N
131 H131     1.3173    -3.2684    -0.5769 H
132 H132     2.7919    -5.4203     0.2042 H
133 H133     1.6805    -6.1950     2.5449 H
134 H134    -0.0969    -4.2391     3.2067 H
135 H135    -0.0220    -2.4661     1.4208 H
136 S136     5.0651    -3.0862    -0.8211 S
137 O137     6.3187    -2.6969    -0.1823 O
138 O138     4.6313    -4.4893    -0.7497 O
139 C139     5.0693    -1.7405    -5.1181 C
140 C140     5.5913    -0.9759    -4.0715 C
141 N141     5.5946    -1.3917    -2.8017 N
142 C142     5.0612    -2.5795    -2.5636 C
143 C143     4.5117    -3.4372    -3.5116 C
144 C144     4.5248    -2.9910    -4.8336 C
145 H145     5.0887    -1.3564    -6.1325 H
146 H146     6.0209     0.0052    -4.2558 H
147 H147     4.0972    -4.3945    -3.2213 H
148 H148     4.1099    -3.6087    -5.6237 H
@<TRIPOS>BOND
1 1 4 1
2 1 9 1
3 1 11 2
4 2 3 1
5 2 5 1
6 2 12 2
7 3 4 2
8 3 31 1
9 4 99 1
10 6 7 2
11 6 10 1
12 6 21 1
13 7 8 1
14 7 32 1
15 8 9 2
16 8 100 1
17 9 22 1
18 11 12 1
19 11 16 1
20 12 13 1
21 13 14 2
22 13 17 1
23 14 15 1
24 14 18 1
25 15 16 2
26 15 19 1
27 16 20 1
28 21 22 2
29 21 26 1
30 22 23 1
31 23 24 2
32 23 27 1
33 24 25 1
34 24 28 1
35 25 26 2
36 25 29 1
37 26 30 1
38 31 36 1
39 31 47 1
40 31 58 1
41 32 69 1
42 32 80 1
43 32 91 1
44 33 34 2
45 33 38 1
46 33 39 1
47 34 35 1
48 34 40 1
49 35 36 2
50 35 41 1
51 36 37 1
52 37 38 2
53 37 42 1
54 38 43 1
55 44 45 2
56 44 49 1
57 44 50 1
58 45 46 1
59 45 51 1
60 46 47 2
61 46 52 1
62 47 48 1
63 48 49 2
64 48 53 1
65 49 54 1
66 55 56 2
67 55 60 1
68 55 61 1
69 56 57 1
70 56 62 1
71 57 58 2
72 57 63 1
73 58 59 1
74 59 60 2
75 59 64 1
76 60 65 1
77 66 67 2
78 66 71 1
79 66 72 1
80 67 68 1
81 67 73 1
82 68 69 2
83 68 74 1
84 69 70 1
85 70 71 2
86 70 75 1
87 71 76 1
88 77 78 2
89 77 82 1
90 77 83 1
91 78 79 1
92 78 84 1
93 79 80 2
94 79 85 1
95 80 81 1
96 81 82 2
97 81 86 1
98 82 87 1
99 88 89 2
100 88 93 1
101 88 94 1
102 89 90 1
103 89 95 1
104 90 91 2
105 90 96 1
106 91 92 1
107 92 93 2
108 92 97 1
109 93 98 1
110 99 101 1
111 100 101 1
112 101 102 2
113 101 118 Ar
114 103 104 1
115 103 105 Ar
116 103 136 1
117 105 109 1
118 105 117 1
119 106 107 Ar
120 106 111 Ar
121 106 112 1
122 107 108 Ar
123 107 113 1
124 108 109 Ar
125 108 114 1
126 109 110 Ar
127 110 111 Ar
128 110 115 1
129 111 116 1
130 118 119 Ar
131 119 120 2
132 119 121 2
133 119 122 1
134 122 123 1
135 122 124 1
136 122 125 1
137 126 127 Ar
138 126 130 1
139 126 131 1
140 127 128 2
141 127 132 1
142 128 129 Ar
143 128 133 1
144 129 130 Ar
145 129 134 1
146 130 135 1
147 136 137 2
148 136 138 2
149 136 142 1
150 139 140 Ar
151 139 144 Ar
152 139 145 1
153 140 141 Ar
154 140 146 1
155 141 142 Ar
156 142 143 Ar
157 143 144 Ar
158 143 147 1
159 144 148 1
